### 
### Created by X-TOOL on Tue Oct 25 00:59:17 2005
### 

@<TRIPOS>MOLECULE
1n2v_ligand
   27    28     1     0     0
SMALL
GAST_HUCK


@<TRIPOS>ATOM
      1 N1         15.4350   16.8530   20.4090 N.pl3     1 SUB1       -0.240
      2 C1         16.5900   17.0760   19.8060 C.2       1 SUB1        0.124
      3 C6         16.7440   17.0260   18.2840 C.3       1 SUB1        0.027
      4 C7         15.6650   17.7690   17.4320 C.3       1 SUB1       -0.037
      5 C8         16.3420   18.3730   16.1580 C.3       1 SUB1       -0.054
      6 C9         15.3430   19.1170   15.2380 C.3       1 SUB1       -0.065
      7 N2         17.4900   17.3220   20.6050 N.2       1 SUB1       -0.306
      8 C2         17.0380   17.3010   21.9580 C.2       1 SUB1        0.105
      9 C4         17.7020   17.5270   23.2770 C.2       1 SUB1        0.219
     10 N5         16.8750   17.4100   24.4010 N.am      1 SUB1       -0.185
     11 N4         15.4120   17.0790   24.3150 N.am      1 SUB1       -0.182
     12 C5         14.7400   16.8560   23.0980 C.2       1 SUB1        0.248
     13 O1         13.5080   16.5760   23.0100 O.2       1 SUB1       -0.385
     14 C3         15.6460   16.9830   21.8390 C.2       1 SUB1        0.166
     15 O3         18.9000   17.7960   23.3310 O.2       1 SUB1       -0.391
     16 H11        14.5431   16.6270   19.9459 H         1 SUB1        0.242
     17 H31        17.7165   17.4717   18.0280 H         1 SUB1        0.051
     18 H32        16.7229   15.9700   17.9768 H         1 SUB1        0.051
     19 H41        14.8827   17.0617   17.1195 H         1 SUB1        0.029
     20 H42        15.2198   18.5846   18.0207 H         1 SUB1        0.029
     21 H51        17.1153   19.0901   16.4703 H         1 SUB1        0.026
     22 H52        16.7985   17.5589   15.5760 H         1 SUB1        0.026
     23 H61        15.8853   19.5135   14.3670 H         1 SUB1        0.023
     24 H62        14.5649   18.4220   14.8894 H         1 SUB1        0.023
     25 H63        14.8817   19.9532   15.7838 H         1 SUB1        0.023
     26 H101       17.2778   17.5538   25.3049 H         1 SUB1        0.215
     27 H111       14.8892   17.0138   25.1650 H         1 SUB1        0.215
@<TRIPOS>BOND
     1    1    2 1  
     2    1   14 1  
     3    2    3 1  
     4    2    7 2  
     5    3    4 1  
     6    4    5 1  
     7    5    6 1  
     8    7    8 1  
     9    8    9 1  
    10    8   14 2  
    11    9   10 am 
    12    9   15 2  
    13   10   11 1  
    14   11   12 am 
    15   12   13 2  
    16   12   14 1  
    17    1   16 1  
    18    3   17 1  
    19    3   18 1  
    20    4   19 1  
    21    4   20 1  
    22    5   21 1  
    23    5   22 1  
    24    6   23 1  
    25    6   24 1  
    26    6   25 1  
    27   10   26 1  
    28   11   27 1  
@<TRIPOS>SUBSTRUCTURE
     1 SUB1        1 GROUP

