1n2v_ligand
  -I-interpret- 

 27 28  0  0  0  0  0  0  0  0999 V2000
   15.4350   16.8530   20.4090 N   0  0  0  0  0
   16.5900   17.0760   19.8060 C   0  0  0  0  0
   16.7440   17.0260   18.2840 C   0  0  0  0  0
   15.6650   17.7690   17.4320 C   0  0  0  0  0
   16.3420   18.3730   16.1580 C   0  0  0  0  0
   15.3430   19.1170   15.2380 C   0  0  0  0  0
   17.4900   17.3220   20.6050 N   0  0  0  0  0
   17.0380   17.3010   21.9580 C   0  0  0  0  0
   17.7020   17.5270   23.2770 C   0  0  0  0  0
   16.8750   17.4100   24.4010 N   0  0  0  0  0
   15.4120   17.0790   24.3150 N   0  0  0  0  0
   14.7400   16.8560   23.0980 C   0  0  0  0  0
   13.5080   16.5760   23.0100 O   0  0  0  0  0
   15.6460   16.9830   21.8390 C   0  0  0  0  0
   18.9000   17.7960   23.3310 O   0  0  0  0  0
   14.5431   16.6270   19.9459 H   0  0  0  0  0
   17.7165   17.4717   18.0280 H   0  0  0  0  0
   16.7229   15.9700   17.9768 H   0  0  0  0  0
   14.8827   17.0617   17.1195 H   0  0  0  0  0
   15.2198   18.5846   18.0207 H   0  0  0  0  0
   17.1153   19.0901   16.4703 H   0  0  0  0  0
   16.7985   17.5589   15.5760 H   0  0  0  0  0
   15.8853   19.5135   14.3670 H   0  0  0  0  0
   14.5649   18.4220   14.8894 H   0  0  0  0  0
   14.8817   19.9532   15.7838 H   0  0  0  0  0
   17.2778   17.5538   25.3049 H   0  0  0  0  0
   14.8892   17.0138   25.1650 H   0  0  0  0  0
  1  2  1  0  0  0
  1 14  1  0  0  0
  2  3  1  0  0  0
  2  7  2  0  0  0
  3  4  1  0  0  0
  4  5  1  0  0  0
  5  6  1  0  0  0
  7  8  1  0  0  0
  8  9  1  0  0  0
  8 14  2  0  0  0
  9 10  1  0  0  0
  9 15  2  0  0  0
 10 11  1  0  0  0
 11 12  1  0  0  0
 12 13  2  0  0  0
 12 14  1  0  0  0
  1 16  1  0  0  0
  3 17  1  0  0  0
  3 18  1  0  0  0
  4 19  1  0  0  0
  4 20  1  0  0  0
  5 21  1  0  0  0
  5 22  1  0  0  0
  6 23  1  0  0  0
  6 24  1  0  0  0
  6 25  1  0  0  0
 10 26  1  0  0  0
 11 27  1  0  0  0
M  END
$$$$
