### 
### Created by X-TOOL on Tue Oct 25 01:45:28 2005
### 

@<TRIPOS>MOLECULE
1n5r_ligand
   65    68     1     0     0
SMALL
GAST_HUCK


@<TRIPOS>ATOM
      1 H201       38.0738   26.2575   10.6040 H         1 SUB1        0.087
      2 H231       36.4058   24.0426    6.5276 H         1 SUB1        0.093
      3 H251       35.9956   24.9170   10.7159 H         1 SUB1        0.070
      4 H301       42.5669   26.9666    6.4666 H         1 SUB1        0.064
      5 H321       42.2773   27.7201   10.6848 H         1 SUB1        0.075
      6 H331       39.9117   26.9447   10.6185 H         1 SUB1        0.077
      7 H351       37.3517   26.9314    4.2737 H         1 SUB1        0.070
      8 H361       36.4033   26.1862    2.0706 H         1 SUB1        0.065
      9 H371       36.6726   23.8118    1.3327 H         1 SUB1        0.070
     10 H381       37.8883   22.1801    2.7925 H         1 SUB1        0.065
     11 H391       38.8411   22.9091    4.9892 H         1 SUB1        0.070
     12 H401       34.5076   23.1400    7.8626 H         1 SUB1        0.200
     13 H402       34.3728   23.5183    9.6008 H         1 SUB1        0.200
     14 H411       44.4723   27.8516    7.7188 H         1 SUB1        0.195
     15 H412       44.3330   28.1691    9.4688 H         1 SUB1        0.195
     16 H421       40.1746   26.3206    3.9197 H         1 SUB1        0.042
     17 H422       41.5136   27.0896    4.8474 H         1 SUB1        0.042
     18 H431       42.7661   25.1381    4.8952 H         1 SUB1        0.033
     19 H432       41.3473   24.0963    4.5124 H         1 SUB1        0.033
     20 C16        37.7270   25.7720    9.6930 C.ar      1 SUB1       -0.015
     21 C17        38.5070   25.9530    8.5220 C.ar      1 SUB1        0.043
     22 C18        37.9990   25.3130    7.2970 C.ar      1 SUB1        0.055
     23 C19        36.7830   24.5360    7.4160 C.ar      1 SUB1        0.029
     24 C20        36.0520   24.3800    8.6280 C.ar      1 SUB1        0.107
     25 C21        36.5280   25.0080    9.7760 C.ar      1 SUB1        0.009
     26 C22        38.7710   25.4390    6.0780 C.ar      1 SUB1        0.066
     27 N23        40.0890   26.0240    6.0380 N.ar      1 SUB1       -0.345
     28 C24        40.6130   26.4850    7.2640 C.ar      1 SUB1        0.052
     29 C25        39.8280   26.4930    8.5180 C.ar      1 SUB1        0.042
     30 C26        41.9710   26.9530    7.3720 C.ar      1 SUB1        0.007
     31 C27        42.5880   27.3950    8.5610 C.ar      1 SUB1        0.086
     32 C28        41.8380   27.3910    9.7500 C.ar      1 SUB1        0.002
     33 C29        40.4810   26.9420    9.6960 C.ar      1 SUB1       -0.018
     34 C30        38.1720   24.9630    4.7860 C.ar      1 SUB1        0.020
     35 C31        37.4700   25.9030    3.9520 C.ar      1 SUB1       -0.039
     36 C32        36.9300   25.4790    2.7010 C.ar      1 SUB1       -0.051
     37 C33        37.0820   24.1350    2.2830 C.ar      1 SUB1       -0.052
     38 C34        37.7740   23.2090    3.1140 C.ar      1 SUB1       -0.051
     39 C35        38.3170   23.6220    4.3630 C.ar      1 SUB1       -0.039
     40 N36        34.8710   23.6100    8.7040 N.pl3     1 SUB1       -0.302
     41 N37        43.9150   27.8450    8.5850 N.pl3     1 SUB1       -0.310
     42 C41        40.8940   26.1870    4.7410 C.3       1 SUB1        0.012
     43 C42        41.8340   25.0630    4.3160 C.3       1 SUB1       -0.000
     44 C43        42.1940   25.1180    2.8320 C.3       1 SUB1       -0.029
     45 N44        43.5420   24.6440    2.2500 N.4       1 SUB1        0.241
     46 C44        43.5980   23.1200    2.2720 C.3       1 SUB1       -0.033
     47 C45        42.4540   22.1930    1.8450 C.3       1 SUB1       -0.024
     48 C46        44.6990   25.1500    3.0760 C.3       1 SUB1       -0.041
     49 C47        43.6900   25.1220    0.8100 C.3       1 SUB1       -0.033
     50 C48        44.9670   25.0450   -0.0350 C.3       1 SUB1       -0.024
     51 H441       41.4311   24.5211    2.3108 H         1 SUB1        0.082
     52 H442       42.1100   26.1743    2.5368 H         1 SUB1        0.082
     53 H461       44.4439   22.8405    1.6269 H         1 SUB1        0.081
     54 H462       43.8132   22.8417    3.3142 H         1 SUB1        0.081
     55 H471       42.7756   21.1481    1.9660 H         1 SUB1        0.028
     56 H472       41.5711   22.3713    2.4764 H         1 SUB1        0.028
     57 H473       42.2019   22.3702    0.7891 H         1 SUB1        0.028
     58 H481       44.6837   26.2499    3.0779 H         1 SUB1        0.078
     59 H482       44.6074   24.7888    4.1109 H         1 SUB1        0.078
     60 H483       45.6490   24.8058    2.6414 H         1 SUB1        0.078
     61 H491       42.9403   24.5610    0.2327 H         1 SUB1        0.081
     62 H492       43.4298   26.1907    0.8240 H         1 SUB1        0.081
     63 H501       44.7639   25.4671   -1.0303 H         1 SUB1        0.028
     64 H502       45.7691   25.6261    0.4435 H         1 SUB1        0.028
     65 H503       45.2796   23.9964   -0.1477 H         1 SUB1        0.028
@<TRIPOS>BOND
     1   20    1 1  
     2   23    2 1  
     3   25    3 1  
     4   30    4 1  
     5   32    5 1  
     6   33    6 1  
     7   35    7 1  
     8   36    8 1  
     9   37    9 1  
    10   38   10 1  
    11   39   11 1  
    12   40   12 1  
    13   40   13 1  
    14   41   14 1  
    15   41   15 1  
    16   42   16 1  
    17   42   17 1  
    18   43   18 1  
    19   21   20 ar 
    20   20   25 ar 
    21   22   21 ar 
    22   29   21 ar 
    23   22   23 ar 
    24   26   22 ar 
    25   23   24 ar 
    26   24   25 ar 
    27   24   40 1  
    28   27   26 ar 
    29   26   34 1  
    30   27   28 ar 
    31   42   27 1  
    32   28   29 ar 
    33   28   30 ar 
    34   29   33 ar 
    35   30   31 ar 
    36   31   32 ar 
    37   31   41 1  
    38   33   32 ar 
    39   34   35 ar 
    40   34   39 ar 
    41   35   36 ar 
    42   36   37 ar 
    43   38   37 ar 
    44   39   38 ar 
    45   42   43 1  
    46   43   44 1  
    47   44   45 1  
    48   45   46 1  
    49   45   48 1  
    50   45   49 1  
    51   46   47 1  
    52   49   50 1  
    53   43   19 1  
    54   44   51 1  
    55   44   52 1  
    56   46   53 1  
    57   46   54 1  
    58   47   55 1  
    59   47   56 1  
    60   47   57 1  
    61   48   58 1  
    62   48   59 1  
    63   48   60 1  
    64   49   61 1  
    65   49   62 1  
    66   50   63 1  
    67   50   64 1  
    68   50   65 1  
@<TRIPOS>SUBSTRUCTURE
     1 SUB1        1 GROUP

