1n5r_ligand
  -I-interpret- 

 65 68  0  0  0  0  0  0  0  0999 V2000
   38.0738   26.2575   10.6040 H   0  0  0  0  0
   36.4058   24.0426    6.5276 H   0  0  0  0  0
   35.9956   24.9170   10.7159 H   0  0  0  0  0
   42.5669   26.9666    6.4666 H   0  0  0  0  0
   42.2773   27.7201   10.6848 H   0  0  0  0  0
   39.9117   26.9447   10.6185 H   0  0  0  0  0
   37.3517   26.9314    4.2737 H   0  0  0  0  0
   36.4033   26.1862    2.0706 H   0  0  0  0  0
   36.6726   23.8118    1.3327 H   0  0  0  0  0
   37.8883   22.1801    2.7925 H   0  0  0  0  0
   38.8411   22.9091    4.9892 H   0  0  0  0  0
   34.5076   23.1400    7.8626 H   0  0  0  0  0
   34.3728   23.5183    9.6008 H   0  0  0  0  0
   44.4723   27.8516    7.7188 H   0  0  0  0  0
   44.3330   28.1691    9.4688 H   0  0  0  0  0
   40.1746   26.3206    3.9197 H   0  0  0  0  0
   41.5136   27.0896    4.8474 H   0  0  0  0  0
   42.7661   25.1381    4.8952 H   0  0  0  0  0
   41.3473   24.0963    4.5124 H   0  0  0  0  0
   37.7270   25.7720    9.6930 C   0  0  0  0  0
   38.5070   25.9530    8.5220 C   0  0  0  0  0
   37.9990   25.3130    7.2970 C   0  0  0  0  0
   36.7830   24.5360    7.4160 C   0  0  0  0  0
   36.0520   24.3800    8.6280 C   0  0  0  0  0
   36.5280   25.0080    9.7760 C   0  0  0  0  0
   38.7710   25.4390    6.0780 C   0  0  0  0  0
   40.0890   26.0240    6.0380 N   0  0  0  0  0
   40.6130   26.4850    7.2640 C   0  0  0  0  0
   39.8280   26.4930    8.5180 C   0  0  0  0  0
   41.9710   26.9530    7.3720 C   0  0  0  0  0
   42.5880   27.3950    8.5610 C   0  0  0  0  0
   41.8380   27.3910    9.7500 C   0  0  0  0  0
   40.4810   26.9420    9.6960 C   0  0  0  0  0
   38.1720   24.9630    4.7860 C   0  0  0  0  0
   37.4700   25.9030    3.9520 C   0  0  0  0  0
   36.9300   25.4790    2.7010 C   0  0  0  0  0
   37.0820   24.1350    2.2830 C   0  0  0  0  0
   37.7740   23.2090    3.1140 C   0  0  0  0  0
   38.3170   23.6220    4.3630 C   0  0  0  0  0
   34.8710   23.6100    8.7040 N   0  0  0  0  0
   43.9150   27.8450    8.5850 N   0  0  0  0  0
   40.8940   26.1870    4.7410 C   0  0  0  0  0
   41.8340   25.0630    4.3160 C   0  0  0  0  0
   42.1940   25.1180    2.8320 C   0  0  0  0  0
   43.5420   24.6440    2.2500 N   0  3  0  0  0
   43.5980   23.1200    2.2720 C   0  0  0  0  0
   42.4540   22.1930    1.8450 C   0  0  0  0  0
   44.6990   25.1500    3.0760 C   0  0  0  0  0
   43.6900   25.1220    0.8100 C   0  0  0  0  0
   44.9670   25.0450   -0.0350 C   0  0  0  0  0
   41.4311   24.5211    2.3108 H   0  0  0  0  0
   42.1100   26.1743    2.5368 H   0  0  0  0  0
   44.4439   22.8405    1.6269 H   0  0  0  0  0
   43.8132   22.8417    3.3142 H   0  0  0  0  0
   42.7756   21.1481    1.9660 H   0  0  0  0  0
   41.5711   22.3713    2.4764 H   0  0  0  0  0
   42.2019   22.3702    0.7891 H   0  0  0  0  0
   44.6837   26.2499    3.0779 H   0  0  0  0  0
   44.6074   24.7888    4.1109 H   0  0  0  0  0
   45.6490   24.8058    2.6414 H   0  0  0  0  0
   42.9403   24.5610    0.2327 H   0  0  0  0  0
   43.4298   26.1907    0.8240 H   0  0  0  0  0
   44.7639   25.4671   -1.0303 H   0  0  0  0  0
   45.7691   25.6261    0.4435 H   0  0  0  0  0
   45.2796   23.9964   -0.1477 H   0  0  0  0  0
 20  1  1  0  0  0
 23  2  1  0  0  0
 25  3  1  0  0  0
 30  4  1  0  0  0
 32  5  1  0  0  0
 33  6  1  0  0  0
 35  7  1  0  0  0
 36  8  1  0  0  0
 37  9  1  0  0  0
 38 10  1  0  0  0
 39 11  1  0  0  0
 40 12  1  0  0  0
 40 13  1  0  0  0
 41 14  1  0  0  0
 41 15  1  0  0  0
 42 16  1  0  0  0
 42 17  1  0  0  0
 43 18  1  0  0  0
 21 20  4  0  0  0
 20 25  4  0  0  0
 22 21  4  0  0  0
 29 21  4  0  0  0
 22 23  4  0  0  0
 26 22  4  0  0  0
 23 24  4  0  0  0
 24 25  4  0  0  0
 24 40  1  0  0  0
 27 26  4  0  0  0
 26 34  1  0  0  0
 27 28  4  0  0  0
 42 27  1  0  0  0
 28 29  4  0  0  0
 28 30  4  0  0  0
 29 33  4  0  0  0
 30 31  4  0  0  0
 31 32  4  0  0  0
 31 41  1  0  0  0
 33 32  4  0  0  0
 34 35  4  0  0  0
 34 39  4  0  0  0
 35 36  4  0  0  0
 36 37  4  0  0  0
 38 37  4  0  0  0
 39 38  4  0  0  0
 42 43  1  0  0  0
 43 44  1  0  0  0
 44 45  1  0  0  0
 45 46  1  0  0  0
 45 48  1  0  0  0
 45 49  1  0  0  0
 46 47  1  0  0  0
 49 50  1  0  0  0
 43 19  1  0  0  0
 44 51  1  0  0  0
 44 52  1  0  0  0
 46 53  1  0  0  0
 46 54  1  0  0  0
 47 55  1  0  0  0
 47 56  1  0  0  0
 47 57  1  0  0  0
 48 58  1  0  0  0
 48 59  1  0  0  0
 48 60  1  0  0  0
 49 61  1  0  0  0
 49 62  1  0  0  0
 50 63  1  0  0  0
 50 64  1  0  0  0
 50 65  1  0  0  0
M  END
$$$$
