2gv6_ligand
  -I-interpret- 

 76 79  0  0  0  0  0  0  0  0999 V2000
   18.5000   64.1160   28.8110 S   0  0  0  0  0
   18.2950   63.4140   30.0570 O   0  0  0  0  0
   19.7530   64.8440   28.6360 O   0  0  0  0  0
   18.3320   63.0850   27.6160 N   0  0  0  0  0
   18.3940   63.4390   26.2220 C   0  0  0  0  0
   17.0350   63.0600   25.5950 C   0  0  0  0  0
   16.4110   63.7080   24.5120 N   0  0  0  0  0
   15.1150   63.1700   24.0230 C   0  0  0  0  0
   14.0500   64.2960   23.8850 C   0  0  0  0  0
   14.5530   65.6660   24.4040 C   0  0  0  0  0
   13.4180   66.7690   24.2700 C   0  0  0  0  0
   13.5250   67.8710   23.1550 C   0  0  0  0  0
   12.3330   68.7720   23.1870 N   0  0  0  0  0
   12.1240   69.8150   22.3640 C   0  3  0  0  0
   11.0110   70.5200   22.5010 N   0  0  0  0  0
   12.9730   70.1780   21.4220 N   0  0  0  0  0
   15.8930   66.0260   23.6570 C   0  0  0  0  0
   16.9920   64.8910   23.8180 C   0  0  0  0  0
   16.5000   62.0790   26.1410 O   0  0  0  0  0
   19.5480   62.8090   25.3560 C   0  0  0  0  0
   19.4040   61.3250   24.9740 C   0  0  0  0  0
   19.9150   60.2860   25.8220 C   0  0  0  0  0
   19.7750   58.9090   25.4620 C   0  0  0  0  0
   20.3190   57.8180   26.3490 C   0  3  0  0  0
   20.7730   58.1080   27.5460 N   0  0  0  0  0
   20.3360   56.5860   25.9180 N   0  0  0  0  0
   19.1120   58.5790   24.2400 C   0  0  0  0  0
   18.6030   59.5940   23.3920 C   0  0  0  0  0
   18.7470   60.9560   23.7510 C   0  0  0  0  0
   17.1400   65.2220   28.5100 C   0  0  0  0  0
   15.7870   64.7850   28.6180 C   0  0  0  0  0
   14.7200   65.6980   28.3440 C   0  0  0  0  0
   15.0070   67.0450   27.9590 C   0  0  0  0  0
   13.9580   67.9680   27.6780 C   0  0  0  0  0
   14.2660   69.3070   27.2930 C   0  0  0  0  0
   15.6240   69.7320   27.1910 C   0  0  0  0  0
   16.6760   68.8210   27.4680 C   0  0  0  0  0
   16.3810   67.4790   27.8520 C   0  0  0  0  0
   17.4250   66.5680   28.1250 C   0  0  0  0  0
   18.1692   62.1060   27.8515 H   0  0  0  0  0
   18.6215   64.5049   26.2075 H   0  0  0  0  0
   14.7515   62.4354   24.7415 H   0  0  0  0  0
   15.2739   62.7212   23.0425 H   0  0  0  0  0
   13.1838   64.0108   24.4820 H   0  0  0  0  0
   13.8162   64.4059   22.8261 H   0  0  0  0  0
   14.7783   65.6202   25.4695 H   0  0  0  0  0
   13.4632   67.3232   25.2075 H   0  0  0  0  0
   12.5196   66.2073   24.0140 H   0  0  0  0  0
   13.5724   67.3836   22.1812 H   0  0  0  0  0
   14.4212   68.4657   23.3320 H   0  0  0  0  0
   11.6197   68.5802   23.8905 H   0  0  0  0  0
   10.3328   70.2678   23.2199 H   0  0  0  0  0
   10.8322   71.3151   21.8876 H   0  0  0  0  0
   13.8405   69.6581   21.2893 H   0  0  0  0  0
   12.7620   70.9786   20.8262 H   0  0  0  0  0
   16.2875   66.9446   24.0913 H   0  0  0  0  0
   15.6710   66.1355   22.5955 H   0  0  0  0  0
   17.3413   64.5896   22.8305 H   0  0  0  0  0
   17.8222   65.2790   24.4082 H   0  0  0  0  0
   20.4480   62.8730   25.9676 H   0  0  0  0  0
   19.5490   63.3598   24.4154 H   0  0  0  0  0
   20.4166   60.5500   26.7530 H   0  0  0  0  0
   20.7581   59.0726   27.8772 H   0  0  0  0  0
   21.1407   57.3687   28.1449 H   0  0  0  0  0
   19.9827   56.3666   24.9866 H   0  0  0  0  0
   20.7026   55.8427   26.5126 H   0  0  0  0  0
   18.9962   57.5329   23.9563 H   0  0  0  0  0
   18.1003   59.3259   22.4627 H   0  0  0  0  0
   18.3556   61.7319   23.0931 H   0  0  0  0  0
   15.5661   63.7579   28.9086 H   0  0  0  0  0
   13.6853   65.3659   28.4290 H   0  0  0  0  0
   12.9183   67.6504   27.7574 H   0  0  0  0  0
   13.4602   70.0082   27.0759 H   0  0  0  0  0
   15.8536   70.7571   26.9001 H   0  0  0  0  0
   17.7128   69.1475   27.3872 H   0  0  0  0  0
   18.4611   66.8959   28.0409 H   0  0  0  0  0
  1  2  2  0  0  0
  1  3  2  0  0  0
  1  4  1  0  0  0
  1 30  1  0  0  0
  4  5  1  0  0  0
  5  6  1  0  0  0
  5 20  1  0  0  0
  6  7  1  0  0  0
  6 19  2  0  0  0
  7  8  1  0  0  0
  7 18  1  0  0  0
  8  9  1  0  0  0
  9 10  1  0  0  0
 10 11  1  0  0  0
 10 17  1  0  0  0
 11 12  1  0  0  0
 12 13  1  0  0  0
 13 14  1  0  0  0
 14 15  1  0  0  0
 14 16  1  0  0  0
 17 18  1  0  0  0
 20 21  1  0  0  0
 21 22  4  0  0  0
 21 29  4  0  0  0
 22 23  4  0  0  0
 23 24  1  0  0  0
 23 27  4  0  0  0
 24 25  1  0  0  0
 24 26  1  0  0  0
 27 28  4  0  0  0
 28 29  4  0  0  0
 30 31  4  0  0  0
 30 39  4  0  0  0
 31 32  4  0  0  0
 32 33  4  0  0  0
 33 34  4  0  0  0
 33 38  4  0  0  0
 34 35  4  0  0  0
 35 36  4  0  0  0
 36 37  4  0  0  0
 37 38  4  0  0  0
 38 39  4  0  0  0
  4 40  1  0  0  0
  5 41  1  0  0  0
  8 42  1  0  0  0
  8 43  1  0  0  0
  9 44  1  0  0  0
  9 45  1  0  0  0
 10 46  1  0  0  0
 11 47  1  0  0  0
 11 48  1  0  0  0
 12 49  1  0  0  0
 12 50  1  0  0  0
 13 51  1  0  0  0
 15 52  1  0  0  0
 15 53  1  0  0  0
 16 54  1  0  0  0
 16 55  1  0  0  0
 17 56  1  0  0  0
 17 57  1  0  0  0
 18 58  1  0  0  0
 18 59  1  0  0  0
 20 60  1  0  0  0
 20 61  1  0  0  0
 22 62  1  0  0  0
 25 63  1  0  0  0
 25 64  1  0  0  0
 26 65  1  0  0  0
 26 66  1  0  0  0
 27 67  1  0  0  0
 28 68  1  0  0  0
 29 69  1  0  0  0
 31 70  1  0  0  0
 32 71  1  0  0  0
 34 72  1  0  0  0
 35 73  1  0  0  0
 36 74  1  0  0  0
 37 75  1  0  0  0
 39 76  1  0  0  0
M  END
$$$$
