### 
### Created by X-TOOL on Sun Jun  3 11:28:08 2007
### 

@<TRIPOS>MOLECULE
2gv6_ligand
   76    79     1     0     0
SMALL
GAST_HUCK


@<TRIPOS>ATOM
      1 S1         18.5000   64.1160   28.8110 S.o2      1 SUB1        0.071
      2 O39        18.2950   63.4140   30.0570 O.2       1 SUB1       -0.150
      3 O38        19.7530   64.8440   28.6360 O.2       1 SUB1       -0.150
      4 N12        18.3320   63.0850   27.6160 N.am      1 SUB1       -0.223
      5 C13        18.3940   63.4390   26.2220 C.3       1 SUB1        0.136
      6 C24        17.0350   63.0600   25.5950 C.2       1 SUB1        0.202
      7 N26        16.4110   63.7080   24.5120 N.am      1 SUB1       -0.271
      8 C31        15.1150   63.1700   24.0230 C.3       1 SUB1        0.034
      9 C30        14.0500   64.2960   23.8850 C.3       1 SUB1       -0.030
     10 C29        14.5530   65.6660   24.4040 C.3       1 SUB1       -0.034
     11 C32        13.4180   66.7690   24.2700 C.3       1 SUB1       -0.017
     12 C33        13.5250   67.8710   23.1550 C.3       1 SUB1        0.063
     13 N34        12.3330   68.7720   23.1870 N.pl3     1 SUB1       -0.272
     14 C35        12.1240   69.8150   22.3640 C.cat     1 SUB1        0.288
     15 N37        11.0110   70.5200   22.5010 N.pl3     1 SUB1       -0.285
     16 N36        12.9730   70.1780   21.4220 N.pl3     1 SUB1       -0.285
     17 C28        15.8930   66.0260   23.6570 C.3       1 SUB1       -0.030
     18 C27        16.9920   64.8910   23.8180 C.3       1 SUB1        0.034
     19 O25        16.5000   62.0790   26.1410 O.2       1 SUB1       -0.395
     20 C14        19.5480   62.8090   25.3560 C.3       1 SUB1        0.018
     21 C15        19.4040   61.3250   24.9740 C.ar      1 SUB1       -0.039
     22 C20        19.9150   60.2860   25.8220 C.ar      1 SUB1       -0.055
     23 C19        19.7750   58.9090   25.4620 C.ar      1 SUB1        0.019
     24 C21        20.3190   57.8180   26.3490 C.cat     1 SUB1        0.234
     25 N23        20.7730   58.1080   27.5460 N.pl3     1 SUB1       -0.272
     26 N22        20.3360   56.5860   25.9180 N.pl3     1 SUB1       -0.272
     27 C18        19.1120   58.5790   24.2400 C.ar      1 SUB1       -0.064
     28 C17        18.6030   59.5940   23.3920 C.ar      1 SUB1       -0.069
     29 C16        18.7470   60.9560   23.7510 C.ar      1 SUB1       -0.060
     30 C2         17.1400   65.2220   28.5100 C.ar      1 SUB1        0.109
     31 C7         15.7870   64.7850   28.6180 C.ar      1 SUB1       -0.034
     32 C6         14.7200   65.6980   28.3440 C.ar      1 SUB1       -0.052
     33 C5         15.0070   67.0450   27.9590 C.ar      1 SUB1       -0.018
     34 C11        13.9580   67.9680   27.6780 C.ar      1 SUB1       -0.054
     35 C10        14.2660   69.3070   27.2930 C.ar      1 SUB1       -0.061
     36 C9         15.6240   69.7320   27.1910 C.ar      1 SUB1       -0.061
     37 C8         16.6760   68.8210   27.4680 C.ar      1 SUB1       -0.054
     38 C4         16.3810   67.4790   27.8520 C.ar      1 SUB1       -0.016
     39 C3         17.4250   66.5680   28.1250 C.ar      1 SUB1       -0.027
     40 H          18.1692   62.1060   27.8515 H         1 SUB1        0.171
     41 H          18.6215   64.5049   26.2075 H         1 SUB1        0.078
     42 H          14.7515   62.4354   24.7415 H         1 SUB1        0.052
     43 H          15.2739   62.7212   23.0425 H         1 SUB1        0.052
     44 H          13.1838   64.0108   24.4820 H         1 SUB1        0.029
     45 H          13.8162   64.4059   22.8261 H         1 SUB1        0.029
     46 H          14.7783   65.6202   25.4695 H         1 SUB1        0.030
     47 H          13.4632   67.3232   25.2075 H         1 SUB1        0.030
     48 H          12.5196   66.2073   24.0140 H         1 SUB1        0.030
     49 H          13.5724   67.3836   22.1812 H         1 SUB1        0.069
     50 H          14.4212   68.4657   23.3320 H         1 SUB1        0.069
     51 H          11.6197   68.5802   23.8905 H         1 SUB1        0.264
     52 H          10.3328   70.2678   23.2199 H         1 SUB1        0.262
     53 H          10.8322   71.3151   21.8876 H         1 SUB1        0.262
     54 H          13.8405   69.6581   21.2893 H         1 SUB1        0.262
     55 H          12.7620   70.9786   20.8262 H         1 SUB1        0.262
     56 H          16.2875   66.9446   24.0913 H         1 SUB1        0.029
     57 H          15.6710   66.1355   22.5955 H         1 SUB1        0.029
     58 H          17.3413   64.5896   22.8305 H         1 SUB1        0.052
     59 H          17.8222   65.2790   24.4082 H         1 SUB1        0.052
     60 H          20.4480   62.8730   25.9676 H         1 SUB1        0.047
     61 H          19.5490   63.3598   24.4154 H         1 SUB1        0.047
     62 H          20.4166   60.5500   26.7530 H         1 SUB1        0.056
     63 H          20.7581   59.0726   27.8772 H         1 SUB1        0.318
     64 H          21.1407   57.3687   28.1449 H         1 SUB1        0.318
     65 H          19.9827   56.3666   24.9866 H         1 SUB1        0.318
     66 H          20.7026   55.8427   26.5126 H         1 SUB1        0.318
     67 H          18.9962   57.5329   23.9563 H         1 SUB1        0.056
     68 H          18.1003   59.3259   22.4627 H         1 SUB1        0.060
     69 H          18.3556   61.7319   23.0931 H         1 SUB1        0.056
     70 H          15.5661   63.7579   28.9086 H         1 SUB1        0.064
     71 H          13.6853   65.3659   28.4290 H         1 SUB1        0.062
     72 H          12.9183   67.6504   27.7574 H         1 SUB1        0.062
     73 H          13.4602   70.0082   27.0759 H         1 SUB1        0.062
     74 H          15.8536   70.7571   26.9001 H         1 SUB1        0.062
     75 H          17.7128   69.1475   27.3872 H         1 SUB1        0.062
     76 H          18.4611   66.8959   28.0409 H         1 SUB1        0.064
@<TRIPOS>BOND
     1    1    2 2  
     2    1    3 2  
     3    1    4 1  
     4    1   30 1  
     5    4    5 1  
     6    5    6 1  
     7    5   20 1  
     8    6    7 am 
     9    6   19 2  
    10    7    8 1  
    11    7   18 1  
    12    8    9 1  
    13    9   10 1  
    14   10   11 1  
    15   10   17 1  
    16   11   12 1  
    17   12   13 1  
    18   13   14 1  
    19   14   15 1  
    20   14   16 1  
    21   17   18 1  
    22   20   21 1  
    23   21   22 ar 
    24   21   29 ar 
    25   22   23 ar 
    26   23   24 1  
    27   23   27 ar 
    28   24   25 1  
    29   24   26 1  
    30   27   28 ar 
    31   28   29 ar 
    32   30   31 ar 
    33   30   39 ar 
    34   31   32 ar 
    35   32   33 ar 
    36   33   34 ar 
    37   33   38 ar 
    38   34   35 ar 
    39   35   36 ar 
    40   36   37 ar 
    41   37   38 ar 
    42   38   39 ar 
    43    4   40 1  
    44    5   41 1  
    45    8   42 1  
    46    8   43 1  
    47    9   44 1  
    48    9   45 1  
    49   10   46 1  
    50   11   47 1  
    51   11   48 1  
    52   12   49 1  
    53   12   50 1  
    54   13   51 1  
    55   15   52 1  
    56   15   53 1  
    57   16   54 1  
    58   16   55 1  
    59   17   56 1  
    60   17   57 1  
    61   18   58 1  
    62   18   59 1  
    63   20   60 1  
    64   20   61 1  
    65   22   62 1  
    66   25   63 1  
    67   25   64 1  
    68   26   65 1  
    69   26   66 1  
    70   27   67 1  
    71   28   68 1  
    72   29   69 1  
    73   31   70 1  
    74   32   71 1  
    75   34   72 1  
    76   35   73 1  
    77   36   74 1  
    78   37   75 1  
    79   39   76 1  
@<TRIPOS>SUBSTRUCTURE
     1 SUB1        1 GROUP

