### 
### Created by X-TOOL on Mon Oct 24 23:47:02 2005
### 

@<TRIPOS>MOLECULE
2qwe_ligand
   43    43     1     0     0
SMALL
GAST_HUCK


@<TRIPOS>ATOM
      1 C1         23.5900   19.7430   64.7850 C.2       1 SUB1        0.061
      2 C2         24.3030   18.7620   64.0840 C.2       1 SUB1        0.093
      3 C3         23.6740   17.6240   63.5690 C.2       1 SUB1       -0.020
      4 C4         24.3480   16.6530   62.6020 C.3       1 SUB1        0.116
      5 C5         25.8650   16.7360   62.8420 C.3       1 SUB1        0.106
      6 C6         26.3000   18.2030   62.7870 C.3       1 SUB1        0.133
      7 C7         27.8160   18.3480   62.9150 C.3       1 SUB1        0.115
      8 C8         28.2250   19.8380   63.0090 C.3       1 SUB1        0.107
      9 C9         29.7320   20.1250   63.1090 C.3       1 SUB1        0.073
     10 C10        27.0310   14.7840   61.9000 C.2       1 SUB1        0.174
     11 C11        27.6800   14.2030   60.6390 C.3       1 SUB1        0.026
     12 N5         26.5400   16.0100   61.7400 N.am      1 SUB1       -0.277
     13 N4         23.8240   15.2990   62.7340 N.pl3     1 SUB1       -0.153
     14 C12        23.7700   14.3740   61.7680 C.cat     1 SUB1        0.390
     15 N6         23.8750   14.7120   60.4780 N.pl3     1 SUB1       -0.183
     16 N7         23.6430   13.0920   62.1020 N.pl3     1 SUB1       -0.183
     17 O1A        24.1940   20.7960   65.0460 O.co2     1 SUB1       -0.572
     18 O1B        22.3740   19.6110   65.0730 O.co2     1 SUB1       -0.572
     19 O6         25.6830   18.9100   63.8820 O.3       1 SUB1       -0.320
     20 O7         28.2320   17.6940   64.0550 O.3       1 SUB1       -0.386
     21 O8         27.8180   20.3710   61.8230 O.3       1 SUB1       -0.387
     22 O9         30.4290   19.4520   62.1410 O.3       1 SUB1       -0.392
     23 O10        26.9920   14.1770   62.9710 O.2       1 SUB1       -0.397
     24 H31        22.6488   17.4193   63.8738 H         1 SUB1        0.060
     25 H41        24.1429   16.9864   61.5740 H         1 SUB1        0.075
     26 H51        26.1260   16.2944   63.8151 H         1 SUB1        0.064
     27 H61        25.9745   18.6396   61.8313 H         1 SUB1        0.069
     28 H71        28.2977   17.8968   62.0350 H         1 SUB1        0.065
     29 H81        27.7114   20.3066   63.8614 H         1 SUB1        0.064
     30 H91        30.0932   19.8068   64.0981 H         1 SUB1        0.058
     31 H92        29.9006   21.2051   62.9872 H         1 SUB1        0.058
     32 H111       28.0587   13.1928   60.8538 H         1 SUB1        0.047
     33 H112       28.5138   14.8482   60.3252 H         1 SUB1        0.047
     34 H113       26.9333   14.1509   59.8330 H         1 SUB1        0.047
     35 H121       26.6290   16.4554   60.8491 H         1 SUB1        0.186
     36 H131       23.4606   15.0283   63.6590 H         1 SUB1        0.202
     37 H151       23.8309   13.9848   59.7499 H         1 SUB1        0.194
     38 H152       23.9999   15.6994   60.2129 H         1 SUB1        0.194
     39 H161       23.5616   12.8236   63.0931 H         1 SUB1        0.194
     40 H162       23.6261   12.3682   61.3694 H         1 SUB1        0.194
     41 H201       27.8068   18.0787   64.8124 H         1 SUB1        0.210
     42 H211       28.2574   19.9244   61.1090 H         1 SUB1        0.210
     43 H221       30.1237   19.7261   61.2841 H         1 SUB1        0.209
@<TRIPOS>BOND
     1    1   18 2  
     2    1   17 2  
     3    1    2 1  
     4    2   19 1  
     5    2    3 2  
     6    3    4 1  
     7    4   13 1  
     8    4    5 1  
     9    5   12 1  
    10    5    6 1  
    11    6   19 1  
    12    6    7 1  
    13    7   20 1  
    14    7    8 1  
    15    8   21 1  
    16    8    9 1  
    17    9   22 1  
    18   12   10 am 
    19   10   23 2  
    20   10   11 1  
    21   13   14 1  
    22   14   16 1  
    23   14   15 1  
    24    3   24 1  
    25    4   25 1  
    26    5   26 1  
    27    6   27 1  
    28    7   28 1  
    29    8   29 1  
    30    9   30 1  
    31    9   31 1  
    32   11   32 1  
    33   11   33 1  
    34   11   34 1  
    35   12   35 1  
    36   13   36 1  
    37   15   37 1  
    38   15   38 1  
    39   16   39 1  
    40   16   40 1  
    41   20   41 1  
    42   21   42 1  
    43   22   43 1  
@<TRIPOS>SUBSTRUCTURE
     1 SUB1        1 GROUP

