### 
### Created by X-TOOL on Tue Oct 25 02:14:39 2005
### 

@<TRIPOS>MOLECULE
1c3x_ligand
   16    17     1     0     0
SMALL
GAST_HUCK


@<TRIPOS>ATOM
      1 I          11.5710  -22.0780    0.2450 I         1 SUB1        0.008
      2 H81        11.0439  -18.9367    1.2474 H         1 SUB1        0.238
      3 H91        11.2154  -14.0784   -0.1167 H         1 SUB1        0.190
      4 H92        11.7933  -13.7511   -1.7725 H         1 SUB1        0.190
      5 H101       12.4051  -15.3711   -3.1863 H         1 SUB1        0.252
      6 O6         12.8870  -17.6580   -4.0870 O.2       1 SUB1       -0.408
      7 C8         11.7540  -20.0820   -0.4660 C.2       1 SUB1        0.165
      8 N9         11.4030  -18.9810    0.2830 N.pl3     1 SUB1       -0.246
      9 N2         11.5660  -14.4200   -1.0230 N.pl3     1 SUB1       -0.280
     10 N1         12.2190  -16.0950   -2.5220 N.am      1 SUB1       -0.183
     11 C2         11.7280  -15.7480   -1.2290 C.2       1 SUB1        0.235
     12 N3         11.4390  -16.6470   -0.2180 N.2       1 SUB1       -0.275
     13 C4         11.6570  -17.9640   -0.5910 C.2       1 SUB1        0.114
     14 C5         12.1240  -18.4460   -1.7910 C.2       1 SUB1        0.098
     15 C6         12.4490  -17.4500   -2.8850 C.2       1 SUB1        0.215
     16 N7         12.1700  -19.8240   -1.7120 N.2       1 SUB1       -0.311
@<TRIPOS>BOND
     1    7    1 1  
     2    8    2 1  
     3    9    3 1  
     4    9    4 1  
     5   10    5 1  
     6   15    6 2  
     7   10   15 am 
     8   15   14 1  
     9   14   16 1  
    10   13   14 2  
    11   12   13 1  
    12   13    8 1  
    13    8    7 1  
    14   16    7 2  
    15   11   12 2  
    16   11   10 am 
    17   11    9 1  
@<TRIPOS>SUBSTRUCTURE
     1 SUB1        1 GROUP

