### 
### Created by X-TOOL on Mon Oct 24 22:19:58 2005
### 

@<TRIPOS>MOLECULE
1xh9_ligand
   68    71     1     0     0
SMALL
GAST_HUCK


@<TRIPOS>ATOM
      1 O22        10.0720   39.6130    9.4250 O.2       1 SUB1       -0.379
      2 C21        10.1020   40.8510    9.2840 C.2       1 SUB1        0.215
      3 C14        10.2490   41.4880    7.9680 C.ar      1 SUB1        0.070
      4 C13        10.0960   40.7380    6.8000 C.ar      1 SUB1       -0.014
      5 C12        10.2090   41.3170    5.5390 C.ar      1 SUB1        0.017
      6 N11        10.4740   42.6110    5.4030 N.ar      1 SUB1       -0.292
      7 C16        10.6380   43.3550    6.5060 C.ar      1 SUB1        0.017
      8 C15        10.5300   42.8480    7.7990 C.ar      1 SUB1       -0.014
      9 N23         9.9370   41.6510   10.4070 N.am      1 SUB1       -0.278
     10 C31         9.3990   41.1270   11.6700 C.3       1 SUB1        0.077
     11 C32         7.9570   41.6440   11.8140 C.3       1 SUB1        0.021
     12 N33         7.3140   41.0610   13.0440 N.3       1 SUB1       -0.314
     13 C34         7.5170   41.9130   14.2990 C.3       1 SUB1       -0.004
     14 C35         8.9340   41.8200   14.8670 C.3       1 SUB1       -0.038
     15 C36         9.9800   42.4120   13.9090 C.3       1 SUB1       -0.027
     16 C37        10.4410   41.4570   12.7840 C.3       1 SUB1        0.066
     17 N41        10.9590   40.1770   13.3160 N.am      1 SUB1       -0.280
     18 C42        12.1220   40.1060   14.0600 C.2       1 SUB1        0.208
     19 O43        12.8560   41.0850   14.1060 O.2       1 SUB1       -0.383
     20 C51        12.4330   38.8970   14.8490 C.ar      1 SUB1        0.054
     21 C52        13.7470   38.6670   15.3180 C.ar      1 SUB1       -0.037
     22 C53        14.0360   37.5560   16.0970 C.ar      1 SUB1       -0.038
     23 C56        11.4330   37.9930   15.1920 C.ar      1 SUB1       -0.037
     24 C55        11.7310   36.8840   15.9670 C.ar      1 SUB1       -0.038
     25 C54        13.0190   36.6430   16.4290 C.ar      1 SUB1        0.036
     26 C61        13.3100   35.5040   17.2950 C.2       1 SUB1        0.155
     27 O62        14.2690   35.6380   18.0900 O.2       1 SUB1       -0.372
     28 C71        12.5680   34.2790   17.3660 C.ar      1 SUB1        0.052
     29 C72        12.4150   33.4450   16.2240 C.ar      1 SUB1        0.095
     30 O92        12.9030   33.7670   15.0670 O.3       1 SUB1       -0.336
     31 C73        11.6880   32.2340   16.3820 C.ar      1 SUB1       -0.038
     32 C74        11.1520   31.8950   17.6050 C.ar      1 SUB1       -0.047
     33 C76        12.0210   33.9220   18.6160 C.ar      1 SUB1       -0.034
     34 C75        11.3170   32.7300   18.7380 C.ar      1 SUB1        0.035
     35 N95        10.7360   32.3640   19.9810 N.pl3     1 SUB1       -0.320
     36 C98        10.6010   30.9260   20.2820 C.3       1 SUB1        0.013
     37 C99         9.5650   33.1730   20.3690 C.3       1 SUB1        0.013
     38 H41         9.8838   39.6778    6.8772 H         1 SUB1        0.076
     39 H51        10.0788   40.7026    4.6555 H         1 SUB1        0.084
     40 H71        10.8669   44.4077    6.3853 H         1 SUB1        0.084
     41 H81        10.6613   43.4954    8.6585 H         1 SUB1        0.076
     42 H91        10.1929   42.6163   10.3544 H         1 SUB1        0.185
     43 H101        9.3366   40.0305   11.6080 H         1 SUB1        0.059
     44 H111        7.3760   41.3509   10.9271 H         1 SUB1        0.045
     45 H112        7.9712   42.7408   11.8971 H         1 SUB1        0.045
     46 H121        7.7384   40.0839   13.2215 H         1 SUB1        0.122
     47 H131        6.8085   41.5749   15.0696 H         1 SUB1        0.042
     48 H132        7.3100   42.9633   14.0459 H         1 SUB1        0.042
     49 H141        9.1757   40.7620   15.0463 H         1 SUB1        0.028
     50 H142        8.9719   42.3711   15.8182 H         1 SUB1        0.028
     51 H151       10.8631   42.6967   14.4998 H         1 SUB1        0.029
     52 H152        9.5473   43.3085   13.4411 H         1 SUB1        0.029
     53 H161       11.2779   41.9682   12.2858 H         1 SUB1        0.058
     54 H171       10.4511   39.3357   13.1312 H         1 SUB1        0.185
     55 H211       14.5365   39.3658   15.0663 H         1 SUB1        0.068
     56 H221       15.0475   37.3913   16.4504 H         1 SUB1        0.068
     57 H231       10.4169   38.1568   14.8517 H         1 SUB1        0.068
     58 H241       10.9399   36.1872   16.2191 H         1 SUB1        0.068
     59 H301       12.6970   33.0863   14.4371 H         1 SUB1        0.247
     60 H311       11.5543   31.5722   15.5339 H         1 SUB1        0.053
     61 H321       10.5930   30.9714   17.7025 H         1 SUB1        0.053
     62 H331       12.1486   34.5718   19.4742 H         1 SUB1        0.054
     63 H361       10.1377   30.8005   21.2717 H         1 SUB1        0.047
     64 H362       11.5956   30.4561   20.2805 H         1 SUB1        0.047
     65 H363        9.9690   30.4492   19.5183 H         1 SUB1        0.047
     66 H371        9.7461   34.2270   20.1117 H         1 SUB1        0.047
     67 H372        9.4002   33.0833   21.4529 H         1 SUB1        0.047
     68 H373        8.6756   32.8120   19.8317 H         1 SUB1        0.047
@<TRIPOS>BOND
     1    1    2 2  
     2    2    3 1  
     3    2    9 am 
     4    3    4 ar 
     5    3    8 ar 
     6    4    5 ar 
     7    5    6 ar 
     8    6    7 ar 
     9    7    8 ar 
    10    9   10 1  
    11   10   11 1  
    12   10   16 1  
    13   11   12 1  
    14   12   13 1  
    15   13   14 1  
    16   14   15 1  
    17   15   16 1  
    18   16   17 1  
    19   17   18 am 
    20   18   19 2  
    21   18   20 1  
    22   20   21 ar 
    23   20   23 ar 
    24   21   22 ar 
    25   22   25 ar 
    26   23   24 ar 
    27   24   25 ar 
    28   25   26 1  
    29   26   27 2  
    30   26   28 1  
    31   28   29 ar 
    32   28   33 ar 
    33   29   30 1  
    34   29   31 ar 
    35   31   32 ar 
    36   32   34 ar 
    37   33   34 ar 
    38   34   35 1  
    39   35   36 1  
    40   35   37 1  
    41    4   38 1  
    42    5   39 1  
    43    7   40 1  
    44    8   41 1  
    45    9   42 1  
    46   10   43 1  
    47   11   44 1  
    48   11   45 1  
    49   12   46 1  
    50   13   47 1  
    51   13   48 1  
    52   14   49 1  
    53   14   50 1  
    54   15   51 1  
    55   15   52 1  
    56   16   53 1  
    57   17   54 1  
    58   21   55 1  
    59   22   56 1  
    60   23   57 1  
    61   24   58 1  
    62   30   59 1  
    63   31   60 1  
    64   32   61 1  
    65   33   62 1  
    66   36   63 1  
    67   36   64 1  
    68   36   65 1  
    69   37   66 1  
    70   37   67 1  
    71   37   68 1  
@<TRIPOS>SUBSTRUCTURE
     1 SUB1        1 GROUP

