1tnk_ligand
  -I-interpret- 

 24 24  0  0  0  0  0  0  0  0999 V2000
   29.3108   16.9857   13.9836 H   0  0  0  0  0
   28.1130   15.7149   14.4045 H   0  0  0  0  0
   29.2758   16.6536   16.3675 H   0  0  0  0  0
   30.8281   16.0228   15.7198 H   0  0  0  0  0
   30.0752   13.8061   15.7231 H   0  0  0  0  0
   28.3493   14.2992   15.7927 H   0  0  0  0  0
   30.4606   12.5064   17.5433 H   0  0  0  0  0
   29.5061   11.6288   19.6419 H   0  0  0  0  0
   27.8936   12.9843   20.9229 H   0  0  0  0  0
   27.2439   15.2254   20.1158 H   0  0  0  0  0
   28.1946   16.1079   18.0139 H   0  0  0  0  0
   29.1850   15.9530   14.3410 C   0  0  0  0  0
   29.7360   15.8910   15.7220 C   0  0  0  0  0
   29.3620   14.5200   16.1610 C   0  0  0  0  0
   29.3740   14.3520   17.6500 C   0  0  0  0  0
   29.7500   13.1000   18.1070 C   0  0  0  0  0
   29.2170   12.6100   19.2830 C   0  0  0  0  0
   28.3150   13.3710   20.0020 C   0  0  0  0  0
   27.9480   14.6290   19.5470 C   0  0  0  0  0
   28.4780   15.1240   18.3700 C   0  0  0  0  0
   29.7690   15.0690   13.3340 N   0  3  0  0  0
   30.5350   14.4800   13.7390 H   0  0  0  0  0
   30.1730   15.6760   12.5900 H   0  0  0  0  0
   29.0530   14.4500   12.9280 H   0  0  0  0  0
 12  1  1  0  0  0
 12  2  1  0  0  0
 13  3  1  0  0  0
 13  4  1  0  0  0
 14  5  1  0  0  0
 14  6  1  0  0  0
 16  7  1  0  0  0
 17  8  1  0  0  0
 18  9  1  0  0  0
 19 10  1  0  0  0
 20 11  1  0  0  0
 13 12  1  0  0  0
 12 21  1  0  0  0
 14 13  1  0  0  0
 15 14  1  0  0  0
 16 15  4  0  0  0
 15 20  4  0  0  0
 17 16  4  0  0  0
 18 17  4  0  0  0
 18 19  4  0  0  0
 19 20  4  0  0  0
 21 22  1  0  0  0
 21 23  1  0  0  0
 21 24  1  0  0  0
M  END
$$$$
