### 
### Created by X-TOOL on Mon Oct 24 22:39:27 2005
### 

@<TRIPOS>MOLECULE
1tnk_ligand
   24    24     1     0     0
SMALL
GAST_HUCK


@<TRIPOS>ATOM
      1 H121       29.3108   16.9857   13.9836 H         1 SUB1        0.082
      2 H122       28.1130   15.7149   14.4045 H         1 SUB1        0.082
      3 H131       29.2758   16.6536   16.3675 H         1 SUB1        0.034
      4 H132       30.8281   16.0228   15.7198 H         1 SUB1        0.034
      5 H141       30.0752   13.8061   15.7231 H         1 SUB1        0.043
      6 H142       28.3493   14.2992   15.7927 H         1 SUB1        0.043
      7 H161       30.4606   12.5064   17.5433 H         1 SUB1        0.056
      8 H171       29.5061   11.6288   19.6419 H         1 SUB1        0.060
      9 H181       27.8936   12.9843   20.9229 H         1 SUB1        0.056
     10 H191       27.2439   15.2254   20.1158 H         1 SUB1        0.060
     11 H201       28.1946   16.1079   18.0139 H         1 SUB1        0.056
     12 C1         29.1850   15.9530   14.3410 C.3       1 SUB1       -0.034
     13 C2         29.7360   15.8910   15.7220 C.3       1 SUB1       -0.003
     14 C3         29.3620   14.5200   16.1610 C.3       1 SUB1       -0.014
     15 C1'        29.3740   14.3520   17.6500 C.ar      1 SUB1       -0.043
     16 C2'        29.7500   13.1000   18.1070 C.ar      1 SUB1       -0.060
     17 C3'        29.2170   12.6100   19.2830 C.ar      1 SUB1       -0.069
     18 C4'        28.3150   13.3710   20.0020 C.ar      1 SUB1       -0.069
     19 C5'        27.9480   14.6290   19.5470 C.ar      1 SUB1       -0.069
     20 C6'        28.4780   15.1240   18.3700 C.ar      1 SUB1       -0.060
     21 N          29.7690   15.0690   13.3340 N.4       1 SUB1        0.219
     22 H211       30.5350   14.4800   13.7390 H         1 SUB1        0.199
     23 H212       30.1730   15.6760   12.5900 H         1 SUB1        0.199
     24 H213       29.0530   14.4500   12.9280 H         1 SUB1        0.199
@<TRIPOS>BOND
     1   12    1 1  
     2   12    2 1  
     3   13    3 1  
     4   13    4 1  
     5   14    5 1  
     6   14    6 1  
     7   16    7 1  
     8   17    8 1  
     9   18    9 1  
    10   19   10 1  
    11   20   11 1  
    12   13   12 1  
    13   12   21 1  
    14   14   13 1  
    15   15   14 1  
    16   16   15 ar 
    17   15   20 ar 
    18   17   16 ar 
    19   18   17 ar 
    20   18   19 ar 
    21   19   20 ar 
    22   21   22 1  
    23   21   23 1  
    24   21   24 1  
@<TRIPOS>SUBSTRUCTURE
     1 SUB1        1 GROUP

