### 
### Created by X-TOOL on Mon Oct 24 21:55:04 2005
### 

@<TRIPOS>MOLECULE
1e6q_ligand
   25    26     1     0     0
SMALL
GAST_HUCK


@<TRIPOS>ATOM
      1 C1         47.2990  119.6880   52.4890 C.2       1 SUB1        0.287
      2 C2         47.9890  119.0190   53.7220 C.3       1 SUB1        0.208
      3 C3         48.3800  120.1170   54.6950 C.3       1 SUB1        0.143
      4 C4         48.7990  121.3860   53.8640 C.3       1 SUB1        0.124
      5 C5         47.4990  122.0130   53.2580 C.3       1 SUB1        0.159
      6 C6         47.5630  123.3470   52.5210 C.3       1 SUB1        0.079
      7 N1         47.0410  121.0280   52.3800 N.2       1 SUB1       -0.106
      8 N17        46.4490  121.2260   51.1460 N.pl3     1 SUB1       -0.018
      9 N18        46.3030  119.9280   50.5630 N.2       1 SUB1        0.051
     10 N21        46.8560  119.1080   51.3610 N.2       1 SUB1       -0.062
     11 O2         47.2650  117.9570   54.4010 O.3       1 SUB1       -0.346
     12 O3         49.4810  119.5720   55.4220 O.3       1 SUB1       -0.379
     13 O4         49.3720  122.3640   54.7470 O.3       1 SUB1       -0.386
     14 O6         48.4570  123.1810   51.3730 O.3       1 SUB1       -0.392
     15 H21        48.9108  118.5462   53.3523 H         1 SUB1        0.119
     16 H31        47.5595  120.3643   55.3846 H         1 SUB1        0.073
     17 H41        49.5211  121.1212   53.0777 H         1 SUB1        0.066
     18 H51        46.7716  122.1347   54.0741 H         1 SUB1        0.072
     19 H61        46.5625  123.6331   52.1645 H         1 SUB1        0.059
     20 H62        47.9629  124.1289   53.1833 H         1 SUB1        0.059
     21 H81        46.1697  122.1262   50.7307 H         1 SUB1        0.340
     22 H111       47.0315  117.2831   53.7735 H         1 SUB1        0.221
     23 H121       49.8163  120.2259   56.0239 H         1 SUB1        0.211
     24 H131       50.1661  122.0137   55.1332 H         1 SUB1        0.210
     25 H141       48.1143  122.5040   50.8015 H         1 SUB1        0.209
@<TRIPOS>BOND
     1    1    2 1  
     2    1    7 2  
     3    1   10 1  
     4    2    3 1  
     5    2   11 1  
     6    3    4 1  
     7    3   12 1  
     8    4    5 1  
     9    4   13 1  
    10    5    6 1  
    11    5    7 1  
    12    6   14 1  
    13    7    8 1  
    14    8    9 1  
    15    9   10 2  
    16    2   15 1  
    17    3   16 1  
    18    4   17 1  
    19    5   18 1  
    20    6   19 1  
    21    6   20 1  
    22    8   21 1  
    23   11   22 1  
    24   12   23 1  
    25   13   24 1  
    26   14   25 1  
@<TRIPOS>SUBSTRUCTURE
     1 SUB1        1 GROUP

