1e6q_ligand
  -I-interpret- 

 25 26  0  0  0  0  0  0  0  0999 V2000
   47.2990  119.6880   52.4890 C   0  0  0  0  0
   47.9890  119.0190   53.7220 C   0  0  0  0  0
   48.3800  120.1170   54.6950 C   0  0  0  0  0
   48.7990  121.3860   53.8640 C   0  0  0  0  0
   47.4990  122.0130   53.2580 C   0  0  0  0  0
   47.5630  123.3470   52.5210 C   0  0  0  0  0
   47.0410  121.0280   52.3800 N   0  3  0  0  0
   46.4490  121.2260   51.1460 N   0  0  0  0  0
   46.3030  119.9280   50.5630 N   0  0  0  0  0
   46.8560  119.1080   51.3610 N   0  0  0  0  0
   47.2650  117.9570   54.4010 O   0  0  0  0  0
   49.4810  119.5720   55.4220 O   0  0  0  0  0
   49.3720  122.3640   54.7470 O   0  0  0  0  0
   48.4570  123.1810   51.3730 O   0  0  0  0  0
   48.9108  118.5462   53.3523 H   0  0  0  0  0
   47.5595  120.3643   55.3846 H   0  0  0  0  0
   49.5211  121.1212   53.0777 H   0  0  0  0  0
   46.7716  122.1347   54.0741 H   0  0  0  0  0
   46.5625  123.6331   52.1645 H   0  0  0  0  0
   47.9629  124.1289   53.1833 H   0  0  0  0  0
   46.1697  122.1262   50.7307 H   0  0  0  0  0
   47.0315  117.2831   53.7735 H   0  0  0  0  0
   49.8163  120.2259   56.0239 H   0  0  0  0  0
   50.1661  122.0137   55.1332 H   0  0  0  0  0
   48.1143  122.5040   50.8015 H   0  0  0  0  0
  1  2  1  0  0  0
  1  7  2  0  0  0
  1 10  1  0  0  0
  2  3  1  0  0  0
  2 11  1  0  0  0
  3  4  1  0  0  0
  3 12  1  0  0  0
  4  5  1  0  0  0
  4 13  1  0  0  0
  5  6  1  0  0  0
  5  7  1  0  0  0
  6 14  1  0  0  0
  7  8  1  0  0  0
  8  9  1  0  0  0
  9 10  2  0  0  0
  2 15  1  0  0  0
  3 16  1  0  0  0
  4 17  1  0  0  0
  5 18  1  0  0  0
  6 19  1  0  0  0
  6 20  1  0  0  0
  8 21  1  0  0  0
 11 22  1  0  0  0
 12 23  1  0  0  0
 13 24  1  0  0  0
 14 25  1  0  0  0
M  END
$$$$
