### 
### Created by X-TOOL on Mon Oct 24 23:01:57 2005
### 

@<TRIPOS>MOLECULE
1hsh_ligand
   92    96     1     0     0
SMALL
GAST_HUCK


@<TRIPOS>ATOM
      1 N1         11.8340    4.3590    9.9060 N.3       1 SUB1       -0.285
      2 C1         12.7330    3.1970    9.9370 C.3       1 SUB1        0.034
      3 C2         13.3080    2.6910    8.6070 C.3       1 SUB1        0.114
      4 C3         14.1000    1.4240    8.8820 C.2       1 SUB1        0.195
      5 O1         13.5090    0.3830    9.1850 O.2       1 SUB1       -0.395
      6 N2         15.4300    1.5170    8.8220 N.am      1 SUB1       -0.280
      7 C4         16.4300    0.3730    9.1140 C.3       1 SUB1        0.045
      8 C5         17.9040    0.8640    9.0220 C.3       1 SUB1       -0.040
      9 C6         16.4940   -0.6600    7.9530 C.3       1 SUB1       -0.040
     10 C7         16.1200   -0.3140   10.5490 C.3       1 SUB1       -0.040
     11 N3         12.2600    2.5380    7.5910 N.3       1 SUB1       -0.278
     12 C8         11.2470    3.6340    7.5410 C.3       1 SUB1        0.014
     13 C9         10.7520    4.1370    8.9100 C.3       1 SUB1        0.014
     14 C10        12.7070    2.0400    6.3020 C.3       1 SUB1        0.028
     15 C11        11.7170    1.0420    5.6970 C.3       1 SUB1        0.071
     16 O2         11.8160    1.0600    4.2690 O.3       1 SUB1       -0.390
     17 C12        11.8960   -0.4230    6.0910 C.3       1 SUB1       -0.004
     18 C13        11.0140   -1.4400    5.3650 C.3       1 SUB1        0.061
     19 C14        11.6830   -2.7690    5.7160 C.3       1 SUB1        0.001
     20 C15        10.8330   -3.9550    5.4080 C.ar      1 SUB1       -0.041
     21 C16        10.4000   -4.2230    4.1150 C.ar      1 SUB1       -0.060
     22 C17         9.4470   -5.2180    3.8990 C.ar      1 SUB1       -0.069
     23 C18         8.9360   -5.9430    4.9810 C.ar      1 SUB1       -0.069
     24 C19         9.3790   -5.6790    6.2700 C.ar      1 SUB1       -0.069
     25 C20        10.3260   -4.6920    6.4830 C.ar      1 SUB1       -0.060
     26 C21         9.5570   -1.3850    5.8630 C.2       1 SUB1        0.183
     27 O3          9.2740   -0.9040    6.9590 O.2       1 SUB1       -0.396
     28 N4          8.6380   -1.9010    5.0490 N.am      1 SUB1       -0.271
     29 C22         7.2200   -2.0180    5.3980 C.3       1 SUB1        0.101
     30 C23         6.4390   -2.8300    4.3370 C.3       1 SUB1        0.095
     31 O4          7.1820   -2.9470    3.1220 O.3       1 SUB1       -0.386
     32 C24         5.0390   -2.2750    4.3350 C.3       1 SUB1        0.009
     33 C25         5.0260   -0.8500    4.8220 C.ar      1 SUB1       -0.036
     34 C26         4.1270    0.2010    4.7200 C.ar      1 SUB1       -0.067
     35 C27         4.5010    1.4360    5.2500 C.ar      1 SUB1       -0.075
     36 C28         5.7400    1.6180    5.8890 C.ar      1 SUB1       -0.075
     37 C29         6.6740    0.5710    6.0220 C.ar      1 SUB1       -0.065
     38 C30         6.4170   -0.7040    5.5100 C.ar      1 SUB1       -0.013
     39 C31        11.4660    4.9870   11.2060 C.3       1 SUB1        0.039
     40 C32        12.5180    5.3700   12.3280 C.ar      1 SUB1       -0.001
     41 C33        13.6040    6.2000   12.0930 C.ar      1 SUB1        0.014
     42 N5         14.5190    6.6560   13.1340 N.ar      1 SUB1       -0.304
     43 C34        14.1940    6.1760   14.4180 C.ar      1 SUB1        0.004
     44 C35        13.1230    5.3490   14.6790 C.ar      1 SUB1       -0.040
     45 C36        12.2840    4.9420   13.6370 C.ar      1 SUB1       -0.039
     46 H21        12.1745    2.3641   10.3890 H         1 SUB1        0.047
     47 H22        13.5845    3.4602   10.5817 H         1 SUB1        0.047
     48 H31        14.0122    3.4470    8.2294 H         1 SUB1        0.072
     49 H61        15.8140    2.4041    8.5658 H         1 SUB1        0.186
     50 H81        18.5836    0.0257    9.2350 H         1 SUB1        0.025
     51 H82        18.0698    1.6661    9.7562 H         1 SUB1        0.025
     52 H83        18.1004    1.2471    8.0097 H         1 SUB1        0.025
     53 H91        17.2153   -1.4511    8.2055 H         1 SUB1        0.025
     54 H92        16.8127   -0.1545    7.0295 H         1 SUB1        0.025
     55 H93        15.4993   -1.1051    7.8029 H         1 SUB1        0.025
     56 H101       16.8432   -1.1223   10.7324 H         1 SUB1        0.025
     57 H102       15.1008   -0.7278   10.5449 H         1 SUB1        0.025
     58 H103       16.2057    0.4418   11.3436 H         1 SUB1        0.025
     59 H121       10.3759    3.2660    6.9792 H         1 SUB1        0.044
     60 H122       11.6942    4.4858    7.0077 H         1 SUB1        0.044
     61 H131       10.2234    5.0894    8.7569 H         1 SUB1        0.044
     62 H132       10.0540    3.3919    9.3193 H         1 SUB1        0.044
     63 H141       13.6789    1.5414    6.4317 H         1 SUB1        0.045
     64 H142       12.8199    2.8899    5.6129 H         1 SUB1        0.045
     65 H151       10.7080    1.3583    6.0001 H         1 SUB1        0.061
     66 H161       11.7123    1.9511    3.9567 H         1 SUB1        0.210
     67 H171       11.6857   -0.5072    7.1674 H         1 SUB1        0.032
     68 H172       12.9447   -0.6943    5.8999 H         1 SUB1        0.032
     69 H181       11.0296   -1.2683    4.2786 H         1 SUB1        0.056
     70 H191       11.9105   -2.7722    6.7922 H         1 SUB1        0.045
     71 H192       12.6185   -2.8514    5.1432 H         1 SUB1        0.045
     72 H211       10.8008   -3.6617    3.2788 H         1 SUB1        0.056
     73 H221        9.1023   -5.4296    2.8933 H         1 SUB1        0.060
     74 H231        8.1920   -6.7131    4.8124 H         1 SUB1        0.056
     75 H241        8.9846   -6.2439    7.1069 H         1 SUB1        0.060
     76 H251       10.6765   -4.4893    7.4885 H         1 SUB1        0.056
     77 H281        8.9319   -2.2264    4.1503 H         1 SUB1        0.188
     78 H291        7.1717   -2.5374    6.3664 H         1 SUB1        0.073
     79 H301        6.3485   -3.8614    4.7084 H         1 SUB1        0.066
     80 H311        8.0381   -3.3136    3.3097 H         1 SUB1        0.210
     81 H321        4.4077   -2.8873    4.9957 H         1 SUB1        0.044
     82 H322        4.6393   -2.3093    3.3108 H         1 SUB1        0.044
     83 H341        3.1629    0.0669    4.2429 H         1 SUB1        0.054
     84 H351        3.8201    2.2754    5.1672 H         1 SUB1        0.054
     85 H361        5.9846    2.5941    6.2920 H         1 SUB1        0.054
     86 H371        7.6118    0.7585    6.5323 H         1 SUB1        0.054
     87 H391       10.7580    4.2937   11.6836 H         1 SUB1        0.060
     88 H392       10.9471    5.9226   10.9503 H         1 SUB1        0.060
     89 H411       13.7836    6.5294   11.0760 H         1 SUB1        0.076
     90 H431       14.8229    6.4745   15.2489 H         1 SUB1        0.077
     91 H441       12.9310    5.0140   15.6919 H         1 SUB1        0.069
     92 H451       11.4448    4.2887   13.8468 H         1 SUB1        0.068
@<TRIPOS>BOND
     1    1   39 1  
     2    1   13 1  
     3    1    2 1  
     4    2    3 1  
     5    3   11 1  
     6    3    4 1  
     7    4    6 am 
     8    4    5 2  
     9    6    7 1  
    10    7   10 1  
    11    7    9 1  
    12    7    8 1  
    13   11   14 1  
    14   11   12 1  
    15   12   13 1  
    16   14   15 1  
    17   15   17 1  
    18   15   16 1  
    19   17   18 1  
    20   18   26 1  
    21   18   19 1  
    22   19   20 1  
    23   20   25 ar 
    24   20   21 ar 
    25   21   22 ar 
    26   22   23 ar 
    27   23   24 ar 
    28   24   25 ar 
    29   26   28 am 
    30   26   27 2  
    31   28   29 1  
    32   29   38 1  
    33   29   30 1  
    34   30   32 1  
    35   30   31 1  
    36   32   33 1  
    37   33   38 ar 
    38   33   34 ar 
    39   34   35 ar 
    40   35   36 ar 
    41   36   37 ar 
    42   37   38 ar 
    43   39   40 1  
    44   40   45 ar 
    45   40   41 ar 
    46   41   42 ar 
    47   42   43 ar 
    48   43   44 ar 
    49   44   45 ar 
    50    2   46 1  
    51    2   47 1  
    52    3   48 1  
    53    6   49 1  
    54    8   50 1  
    55    8   51 1  
    56    8   52 1  
    57    9   53 1  
    58    9   54 1  
    59    9   55 1  
    60   10   56 1  
    61   10   57 1  
    62   10   58 1  
    63   12   59 1  
    64   12   60 1  
    65   13   61 1  
    66   13   62 1  
    67   14   63 1  
    68   14   64 1  
    69   15   65 1  
    70   16   66 1  
    71   17   67 1  
    72   17   68 1  
    73   18   69 1  
    74   19   70 1  
    75   19   71 1  
    76   21   72 1  
    77   22   73 1  
    78   23   74 1  
    79   24   75 1  
    80   25   76 1  
    81   28   77 1  
    82   29   78 1  
    83   30   79 1  
    84   31   80 1  
    85   32   81 1  
    86   32   82 1  
    87   34   83 1  
    88   35   84 1  
    89   36   85 1  
    90   37   86 1  
    91   39   87 1  
    92   39   88 1  
    93   41   89 1  
    94   43   90 1  
    95   44   91 1  
    96   45   92 1  
@<TRIPOS>SUBSTRUCTURE
     1 SUB1        1 GROUP

