### 
### Created by X-TOOL on Tue Oct 25 01:27:28 2005
### 

@<TRIPOS>MOLECULE
1m83_ligand
   43    45     1     0     0
SMALL
GAST_HUCK


@<TRIPOS>ATOM
      1 PG         48.2440   21.5960   35.8000 P.3       1 SUB1        0.143
      2 O1G        48.1050   22.1860   37.1570 O.co2     1 SUB1       -0.614
      3 O2G        47.9310   20.1590   35.8950 O.co2     1 SUB1       -0.614
      4 O3G        47.3560   22.2910   34.8250 O.co2     1 SUB1       -0.614
      5 PB         50.6660   23.0440   35.0130 P.3       1 SUB1        0.354
      6 O1B        50.2430   24.3380   35.5960 O.co2     1 SUB1       -0.497
      7 O2B        50.7530   23.2190   33.5540 O.co2     1 SUB1       -0.497
      8 O3B        49.7530   21.7920   35.3010 O.3       1 SUB1       -0.297
      9 PA         52.6680   22.2360   37.0620 P.3       1 SUB1        0.350
     10 O1A        51.6380   22.7110   38.0080 O.co2     1 SUB1       -0.488
     11 O2A        53.0180   20.8190   37.0900 O.co2     1 SUB1       -0.488
     12 O3A        52.1230   22.6480   35.5880 O.3       1 SUB1       -0.186
     13 O5         53.9570   23.0880   37.3040 O.3       1 SUB1       -0.280
     14 C5         55.3050   22.7300   36.8240 C.3       1 SUB1        0.102
     15 C4         56.1220   23.9460   36.7050 C.3       1 SUB1        0.117
     16 O4         55.7620   24.7550   35.5660 O.3       1 SUB1       -0.345
     17 C3         56.1940   24.9460   37.8820 C.3       1 SUB1        0.114
     18 O3         57.5380   25.3860   38.0820 O.3       1 SUB1       -0.386
     19 C2         55.2690   26.0210   37.3250 C.3       1 SUB1        0.129
     20 O2         55.2190   27.2780   37.9580 O.3       1 SUB1       -0.385
     21 C1         55.7050   26.1090   35.8530 C.3       1 SUB1        0.172
     22 N9         54.6120   26.6660   34.9420 N.ar      1 SUB1       -0.260
     23 C8         53.3090   26.1950   34.8310 C.ar      1 SUB1        0.142
     24 N7         52.5690   26.8990   33.9250 N.ar      1 SUB1       -0.172
     25 C5         53.4490   27.8390   33.4470 C.ar      1 SUB1        0.238
     26 C6         53.2620   28.8830   32.4530 C.ar      1 SUB1        0.257
     27 N6         52.1300   29.1040   31.7920 N.pl3     1 SUB1       -0.255
     28 N1         54.3760   29.6860   32.1980 N.ar      1 SUB1       -0.126
     29 C2         55.6240   29.5280   32.8410 C.ar      1 SUB1        0.199
     30 N3         55.7850   28.5310   33.7920 N.ar      1 SUB1       -0.126
     31 C4         54.7160   27.7080   34.0740 C.ar      1 SUB1        0.229
     32 H141       55.2268   22.2433   35.8407 H         1 SUB1        0.064
     33 H142       55.7772   22.0396   37.5384 H         1 SUB1        0.064
     34 H151       57.1473   23.5804   36.5468 H         1 SUB1        0.065
     35 H171       55.8053   24.5206   38.8190 H         1 SUB1        0.065
     36 H181       57.5648   25.9988   38.8074 H         1 SUB1        0.210
     37 H191       54.2424   25.6282   37.3675 H         1 SUB1        0.067
     38 H201       54.6027   27.8375   37.5002 H         1 SUB1        0.210
     39 H211       56.6563   26.6449   35.7200 H         1 SUB1        0.088
     40 H231       52.9221   25.3589   35.4022 H         1 SUB1        0.118
     41 H271       52.0774   29.8661   31.1011 H         1 SUB1        0.235
     42 H272       51.3055   28.5132   31.9708 H         1 SUB1        0.235
     43 H291       56.4516   30.1825   32.5925 H         1 SUB1        0.164
@<TRIPOS>BOND
     1    1    2 2  
     2    1    3 2  
     3    1    4 2  
     4    8    1 1  
     5    5    6 2  
     6    5    7 2  
     7    5    8 1  
     8   12    5 1  
     9    9   10 2  
    10    9   11 2  
    11    9   12 1  
    12    9   13 1  
    13   13   14 1  
    14   14   15 1  
    15   15   16 1  
    16   15   17 1  
    17   16   21 1  
    18   17   18 1  
    19   17   19 1  
    20   19   20 1  
    21   19   21 1  
    22   21   22 1  
    23   22   23 ar 
    24   22   31 ar 
    25   23   24 ar 
    26   24   25 ar 
    27   25   26 ar 
    28   25   31 ar 
    29   26   27 1  
    30   26   28 ar 
    31   28   29 ar 
    32   29   30 ar 
    33   30   31 ar 
    34   14   32 1  
    35   14   33 1  
    36   15   34 1  
    37   17   35 1  
    38   18   36 1  
    39   19   37 1  
    40   20   38 1  
    41   21   39 1  
    42   23   40 1  
    43   27   41 1  
    44   27   42 1  
    45   29   43 1  
@<TRIPOS>SUBSTRUCTURE
     1 SUB1        1 GROUP

