### 
### Created by X-TOOL on Mon Oct 24 22:55:36 2005
### 

@<TRIPOS>MOLECULE
1tmn_ligand
   67    69     1     0     0
SMALL
GAST_HUCK


@<TRIPOS>ATOM
      1 CA         51.6340   18.0880   -5.7220 C.3       1 SUB1        0.021
      2 CB1        50.3130   18.1120   -6.5120 C.3       1 SUB1        0.011
      3 CG         49.8520   16.6610   -6.7000 C.3       1 SUB1       -0.011
      4 CD         48.5260   16.4110   -7.4500 C.ar      1 SUB1       -0.043
      5 CE1        48.5000   16.3550   -8.8380 C.ar      1 SUB1       -0.060
      6 CE2        47.3940   16.1190   -6.7300 C.ar      1 SUB1       -0.060
      7 CZ1        47.3130   16.0460   -9.5300 C.ar      1 SUB1       -0.069
      8 CZ2        46.1950   15.8210   -7.4020 C.ar      1 SUB1       -0.069
      9 CH         46.1420   15.7920   -8.8100 C.ar      1 SUB1       -0.069
     10 CB2        52.5090   19.0800   -6.4520 C.2       1 SUB1        0.076
     11 OG1        53.3270   18.7000   -7.3160 O.co2     1 SUB1       -0.561
     12 OG2        52.3300   20.2880   -6.2750 O.co2     1 SUB1       -0.561
     13 N          51.5380   18.2350   -4.2180 N.4       1 SUB1        0.265
     14 CA         52.8370   18.1030   -3.5130 C.3       1 SUB1        0.069
     15 C          53.6810   16.8680   -3.8590 C.2       1 SUB1        0.228
     16 O          54.9390   16.9380   -3.9590 O.2       1 SUB1       -0.391
     17 CB         52.5980   18.0910   -2.0020 C.3       1 SUB1        0.010
     18 CG         53.9410   18.2290   -1.3100 C.3       1 SUB1       -0.039
     19 CD1        54.6280   19.5270   -1.7280 C.3       1 SUB1       -0.062
     20 CD2        53.6860   18.1710    0.1900 C.3       1 SUB1       -0.062
     21 N          52.9520   15.7650   -3.9830 N.am      1 SUB1       -0.264
     22 CA         53.5300   14.4480   -4.2980 C.3       1 SUB1        0.086
     23 C          52.6430   13.5310   -5.1330 C.2       1 SUB1        0.054
     24 O          51.5720   14.0270   -5.6050 O.co2     1 SUB1       -0.564
     25 CB         54.1010   13.7350   -3.0370 C.3       1 SUB1       -0.002
     26 CG         52.9430   13.2580   -2.1640 C.2       1 SUB1       -0.041
     27 CD1        51.8320   13.9080   -1.8230 C.2       1 SUB1        0.017
     28 CD2        52.7980   11.9770   -1.6420 C.ar      1 SUB1       -0.021
     29 NE1        50.8920   12.9890   -1.3140 N.pl3     1 SUB1       -0.289
     30 CE2        51.4420   11.8400   -1.2860 C.ar      1 SUB1        0.060
     31 CE3        53.7230   10.9460   -1.4800 C.ar      1 SUB1       -0.075
     32 CZ2        50.9040   10.6380   -0.8550 C.ar      1 SUB1       -0.044
     33 CZ3        53.2130    9.7410   -0.9640 C.ar      1 SUB1       -0.079
     34 CH2        51.8310    9.5840   -0.6900 C.ar      1 SUB1       -0.077
     35 OXT        53.1420   12.4690   -5.6520 O.co2     1 SUB1       -0.564
     36 H131       51.1572   19.1454   -4.0125 H         1 SUB1        0.206
     37 H141       53.4338   18.9906   -3.7699 H         1 SUB1        0.110
     38 H171       52.1227   17.1438   -1.7074 H         1 SUB1        0.035
     39 H172       51.9460   18.9312   -1.7212 H         1 SUB1        0.035
     40 H181       54.5872   17.3863   -1.5967 H         1 SUB1        0.030
     41 H191       54.7952   19.5197   -2.8152 H         1 SUB1        0.023
     42 H192       55.5940   19.6142   -1.2091 H         1 SUB1        0.023
     43 H193       53.9898   20.3822   -1.4609 H         1 SUB1        0.023
     44 H201       53.0243   18.9999    0.4817 H         1 SUB1        0.023
     45 H202       54.6415   18.2578    0.7280 H         1 SUB1        0.023
     46 H203       53.2080   17.2134    0.4439 H         1 SUB1        0.023
     47 H211       51.9623   15.8321   -3.8563 H         1 SUB1        0.190
     48 H221       54.3998   14.6627   -4.9362 H         1 SUB1        0.079
     49 H251       54.7258   14.4387   -2.4674 H         1 SUB1        0.041
     50 H252       54.7091   12.8719   -3.3457 H         1 SUB1        0.041
     51 H271       51.6743   14.9810   -1.9218 H         1 SUB1        0.079
     52 H291       49.9303   13.2078   -1.0171 H         1 SUB1        0.222
     53 H311       54.7696   11.0658   -1.7357 H         1 SUB1        0.054
     54 H321       49.8452   10.5146   -0.6580 H         1 SUB1        0.054
     55 H331       53.8899    8.9163   -0.7721 H         1 SUB1        0.051
     56 H341       51.4727    8.6220   -0.3418 H         1 SUB1        0.053
     57 H11        52.0803   17.0940   -5.8730 H         1 SUB1        0.107
     58 H21        50.4721   18.5840   -7.4928 H         1 SUB1        0.038
     59 H22        49.5526   18.6765   -5.9524 H         1 SUB1        0.038
     60 H31        49.7491   16.2185   -5.6982 H         1 SUB1        0.043
     61 H32        50.6443   16.1356   -7.2533 H         1 SUB1        0.043
     62 H51        49.4076   16.5522   -9.3970 H         1 SUB1        0.056
     63 H61        47.4243   16.1181   -5.6464 H         1 SUB1        0.056
     64 H71        47.3074   16.0054  -10.6132 H         1 SUB1        0.060
     65 H81        45.2992   15.6107   -6.8290 H         1 SUB1        0.060
     66 H91        45.2122   15.5771   -9.3242 H         1 SUB1        0.056
     67 H132       50.9147   17.5236   -3.8694 H         1 SUB1        0.206
@<TRIPOS>BOND
     1   13   14 1  
     2   14   17 1  
     3   14   15 1  
     4   15   16 2  
     5   17   18 1  
     6   18   19 1  
     7   18   20 1  
     8   21   22 1  
     9   22   25 1  
    10   22   23 1  
    11   23   24 2  
    12   23   35 2  
    13   25   26 1  
    14   26   27 2  
    15   26   28 1  
    16   28   31 ar 
    17   28   30 ar 
    18   30   32 ar 
    19   30   29 1  
    20   27   29 1  
    21   32   34 ar 
    22   33   34 ar 
    23   31   33 ar 
    24   15   21 am 
    25    1    2 1  
    26    1   10 1  
    27    1   13 1  
    28    2    3 1  
    29    3    4 1  
    30    4    5 ar 
    31    4    6 ar 
    32    5    7 ar 
    33    6    8 ar 
    34    7    9 ar 
    35    8    9 ar 
    36   10   11 2  
    37   10   12 2  
    38   13   36 1  
    39   14   37 1  
    40   17   38 1  
    41   17   39 1  
    42   18   40 1  
    43   19   41 1  
    44   19   42 1  
    45   19   43 1  
    46   20   44 1  
    47   20   45 1  
    48   20   46 1  
    49   21   47 1  
    50   22   48 1  
    51   25   49 1  
    52   25   50 1  
    53   27   51 1  
    54   29   52 1  
    55   31   53 1  
    56   32   54 1  
    57   33   55 1  
    58   34   56 1  
    59    1   57 1  
    60    2   58 1  
    61    2   59 1  
    62    3   60 1  
    63    3   61 1  
    64    5   62 1  
    65    6   63 1  
    66    7   64 1  
    67    8   65 1  
    68    9   66 1  
    69   13   67 1  
@<TRIPOS>SUBSTRUCTURE
     1 SUB1        1 GROUP

