### 
### Created by X-TOOL on Sun Jun  3 11:20:36 2007
### 

@<TRIPOS>MOLECULE
2ewa_ligand
   43    46     1     0     0
SMALL
GAST_HUCK


@<TRIPOS>ATOM
      1 O2         -0.3300    9.2600   24.1280 O.2       1 SUB1       -0.252
      2 C1         -1.4230   10.5410   21.8210 C.3       1 SUB1        0.016
      3 S1         -1.6730    9.4110   23.2440 S.o       1 SUB1        0.051
      4 CA1        -2.4570    5.3800   22.9950 C.ar      1 SUB1       -0.047
      5 CA2        -2.0380    6.6730   23.4850 C.ar      1 SUB1       -0.044
      6 CA3        -2.2040    7.8440   22.6250 C.ar      1 SUB1        0.040
      7 CA4        -2.7880    7.7500   21.2820 C.ar      1 SUB1       -0.044
      8 CA5        -3.2060    6.4460   20.8020 C.ar      1 SUB1       -0.047
      9 CA6        -3.0530    5.2140   21.6420 C.ar      1 SUB1        0.028
     10 NB1        -3.6120   -2.3390   22.7720 N.ar      1 SUB1       -0.306
     11 CB2        -4.0950   -1.3450   23.6270 C.ar      1 SUB1        0.004
     12 CB3        -4.1700    0.0440   23.1630 C.ar      1 SUB1       -0.034
     13 CB4        -3.7210    0.3530   21.7690 C.ar      1 SUB1       -0.006
     14 CB5        -3.2110   -0.7840   20.9120 C.ar      1 SUB1       -0.034
     15 CB6        -3.1790   -2.1190   21.4670 C.ar      1 SUB1        0.004
     16 NC1        -3.2780    2.7930   21.9870 N.2       1 SUB1       -0.306
     17 CC2        -3.4490    3.9120   21.1770 C.2       1 SUB1        0.141
     18 NC3        -4.0120    3.6940   19.9220 N.pl3     1 SUB1       -0.248
     19 CC4        -4.2270    2.2950   19.9070 C.2       1 SUB1        0.097
     20 CC5        -3.7570    1.7240   21.2200 C.2       1 SUB1        0.048
     21 CD1        -4.1230    1.7920   17.4690 C.ar      1 SUB1       -0.053
     22 CD2        -4.6410    1.1720   16.2760 C.ar      1 SUB1       -0.027
     23 CD3        -5.8550    0.3820   16.3300 C.ar      1 SUB1        0.133
     24 CD4        -6.5790    0.2000   17.6010 C.ar      1 SUB1       -0.027
     25 CD5        -6.0610    0.8240   18.8110 C.ar      1 SUB1       -0.053
     26 CD6        -4.8050    1.6420   18.7620 C.ar      1 SUB1        0.007
     27 FD3        -6.2980   -0.1800   15.1720 F         1 SUB1       -0.183
     28 H          -0.6649   10.1252   21.1573 H         1 SUB1        0.037
     29 H          -2.3615   10.6525   21.2780 H         1 SUB1        0.037
     30 H          -1.0946   11.5145   22.1851 H         1 SUB1        0.037
     31 H          -2.3334    4.5045   23.6324 H         1 SUB1        0.064
     32 H          -1.6049    6.7740   24.4802 H         1 SUB1        0.063
     33 H          -2.9049    8.6377   20.6604 H         1 SUB1        0.063
     34 H          -3.6418    6.3603   19.8066 H         1 SUB1        0.064
     35 H          -4.4154   -1.6015   24.6368 H         1 SUB1        0.080
     36 H          -4.5435    0.8319   23.8170 H         1 SUB1        0.067
     37 H          -2.8729   -0.6001   19.8922 H         1 SUB1        0.067
     38 H          -2.8164   -2.9519   20.8646 H         1 SUB1        0.080
     39 H          -4.2189    4.3758   19.1921 H         1 SUB1        0.238
     40 H          -3.2089    2.3829   17.4114 H         1 SUB1        0.061
     41 H          -4.1174    1.2977   15.3283 H         1 SUB1        0.061
     42 H          -7.4917   -0.3948   17.6350 H         1 SUB1        0.061
     43 H          -6.5886    0.6958   19.7562 H         1 SUB1        0.061
@<TRIPOS>BOND
     1    3    1 2  
     2    3    2 1  
     3    6    3 1  
     4    4    5 ar 
     5    9    4 ar 
     6    5    6 ar 
     7    7    6 ar 
     8    8    7 ar 
     9    9    8 ar 
    10   17    9 1  
    11   11   10 ar 
    12   15   10 ar 
    13   12   11 ar 
    14   13   12 ar 
    15   13   14 ar 
    16   20   13 1  
    17   14   15 ar 
    18   16   17 2  
    19   20   16 1  
    20   18   17 1  
    21   19   18 1  
    22   19   20 2  
    23   26   19 1  
    24   21   22 ar 
    25   21   26 ar 
    26   22   23 ar 
    27   23   24 ar 
    28   23   27 1  
    29   24   25 ar 
    30   25   26 ar 
    31    2   28 1  
    32    2   29 1  
    33    2   30 1  
    34    4   31 1  
    35    5   32 1  
    36    7   33 1  
    37    8   34 1  
    38   11   35 1  
    39   12   36 1  
    40   14   37 1  
    41   15   38 1  
    42   18   39 1  
    43   21   40 1  
    44   22   41 1  
    45   24   42 1  
    46   25   43 1  
@<TRIPOS>SUBSTRUCTURE
     1 SUB1        1 GROUP

