### 
### Created by X-TOOL on Mon Oct 24 21:53:00 2005
### 

@<TRIPOS>MOLECULE
1jet_ligand
   57    56     1     0     0
SMALL
GAST_HUCK


@<TRIPOS>ATOM
      1 N           6.7290   16.4500   14.9920 N.4       1 SUB1        0.238
      2 CA          6.2530   17.7560   14.4370 C.3       1 SUB1        0.065
      3 C           5.0450   18.2510   15.2150 C.2       1 SUB1        0.227
      4 O           4.2800   17.4480   15.7620 O.2       1 SUB1       -0.391
      5 CB          5.9680   17.6540   12.9460 C.3       1 SUB1        0.008
      6 CG          5.1180   16.4580   12.5480 C.3       1 SUB1       -0.041
      7 CD          4.9780   16.3570   11.0330 C.3       1 SUB1       -0.012
      8 CE          6.2490   15.7930   10.4040 C.3       1 SUB1       -0.035
      9 NZ          6.4830   14.3920   10.8750 N.4       1 SUB1        0.219
     10 N           4.9230   19.5660   15.3190 N.am      1 SUB1       -0.261
     11 CA          3.8390   20.1950   16.0660 C.3       1 SUB1        0.128
     12 C           2.5280   20.1380   15.3050 C.2       1 SUB1        0.205
     13 O           2.4620   20.4270   14.1110 O.2       1 SUB1       -0.394
     14 CB          4.2130   21.6510   16.3500 C.3       1 SUB1       -0.024
     15 N           1.4530   19.7490   16.0220 N.am      1 SUB1       -0.268
     16 CA          0.1430   19.6800   15.4080 C.3       1 SUB1        0.081
     17 C          -0.8750   20.5130   16.1950 C.2       1 SUB1        0.053
     18 O          -1.9550   20.7840   15.6090 O.co2     1 SUB1       -0.564
     19 CB         -0.3480   18.2320   15.2750 C.3       1 SUB1       -0.018
     20 CG         -1.6030   18.1240   14.4160 C.3       1 SUB1       -0.043
     21 CD         -1.5520   17.0510   13.3670 C.3       1 SUB1       -0.012
     22 CE         -2.5720   17.3320   12.2680 C.3       1 SUB1       -0.035
     23 NZ         -3.8410   17.8600   12.8360 N.4       1 SUB1        0.219
     24 OXT        -0.5530   20.9080   17.3330 O.co2     1 SUB1       -0.564
     25 H11         6.1505   16.1866   15.7743 H         1 SUB1        0.201
     26 H21         7.0600   18.4917   14.5694 H         1 SUB1        0.110
     27 H51         6.9295   17.5839   12.4162 H         1 SUB1        0.035
     28 H52         5.4428   18.5684   12.6330 H         1 SUB1        0.035
     29 H61         4.1181   16.5648   12.9938 H         1 SUB1        0.027
     30 H62         5.5918   15.5401   12.9260 H         1 SUB1        0.027
     31 H71         4.7869   17.3591   10.6215 H         1 SUB1        0.032
     32 H72         4.1331   15.6948   10.7929 H         1 SUB1        0.032
     33 H81         7.1056   16.4204   10.6914 H         1 SUB1        0.081
     34 H82         6.1440   15.7951    9.3090 H         1 SUB1        0.081
     35 H91         6.5912   14.3881   11.8772 H         1 SUB1        0.199
     36 H92         7.3192   14.0283   10.4454 H         1 SUB1        0.199
     37 H93         5.6963   13.8159   10.6198 H         1 SUB1        0.199
     38 H101        5.5991   20.1493   14.8687 H         1 SUB1        0.188
     39 H111        3.7127   19.6632   17.0206 H         1 SUB1        0.080
     40 H141        4.3667   22.1822   15.3991 H         1 SUB1        0.028
     41 H142        5.1398   21.6828   16.9417 H         1 SUB1        0.028
     42 H143        3.4015   22.1348   16.9134 H         1 SUB1        0.028
     43 H151        1.5618   19.5062   16.9860 H         1 SUB1        0.190
     44 H161        0.2233   20.1047   14.3965 H         1 SUB1        0.078
     45 H191       -0.5712   17.8404   16.2784 H         1 SUB1        0.032
     46 H192        0.4487   17.6290   14.8150 H         1 SUB1        0.032
     47 H201       -1.7580   19.0894   13.9120 H         1 SUB1        0.027
     48 H202       -2.4557   17.9155   15.0789 H         1 SUB1        0.027
     49 H211       -1.7778   16.0796   13.8310 H         1 SUB1        0.032
     50 H212       -0.5442   17.0218   12.9272 H         1 SUB1        0.032
     51 H221       -2.7824   16.3982   11.7261 H         1 SUB1        0.081
     52 H222       -2.1542   18.0739   11.5715 H         1 SUB1        0.081
     53 H231       -4.2366   17.1789   13.4650 H         1 SUB1        0.199
     54 H232       -4.4920   18.0454   12.0891 H         1 SUB1        0.199
     55 H233       -3.6546   18.7135   13.3388 H         1 SUB1        0.199
     56 H12         7.6851   16.5432   15.2974 H         1 SUB1        0.201
     57 H13         6.6719   15.7407   14.2781 H         1 SUB1        0.201
@<TRIPOS>BOND
     1    3    2 1  
     2    2    5 1  
     3    2    1 1  
     4    5    6 1  
     5    6    7 1  
     6    7    8 1  
     7    8    9 1  
     8    3    4 2  
     9   12   11 1  
    10   11   14 1  
    11   11   10 1  
    12   12   13 2  
    13   16   17 1  
    14   16   19 1  
    15   15   16 1  
    16   19   20 1  
    17   20   21 1  
    18   21   22 1  
    19   22   23 1  
    20   17   24 2  
    21   17   18 2  
    22   10    3 am 
    23   12   15 am 
    24    1   25 1  
    25    2   26 1  
    26    5   27 1  
    27    5   28 1  
    28    6   29 1  
    29    6   30 1  
    30    7   31 1  
    31    7   32 1  
    32    8   33 1  
    33    8   34 1  
    34    9   35 1  
    35    9   36 1  
    36    9   37 1  
    37   10   38 1  
    38   11   39 1  
    39   14   40 1  
    40   14   41 1  
    41   14   42 1  
    42   15   43 1  
    43   16   44 1  
    44   19   45 1  
    45   19   46 1  
    46   20   47 1  
    47   20   48 1  
    48   21   49 1  
    49   21   50 1  
    50   22   51 1  
    51   22   52 1  
    52   23   53 1  
    53   23   54 1  
    54   23   55 1  
    55    1   56 1  
    56    1   57 1  
@<TRIPOS>SUBSTRUCTURE
     1 SUB1        1 GROUP

