1jet_ligand
  -I-interpret- 

 57 56  0  0  0  0  0  0  0  0999 V2000
    6.7290   16.4500   14.9920 N   0  3  0  0  0
    6.2530   17.7560   14.4370 C   0  0  0  0  0
    5.0450   18.2510   15.2150 C   0  0  0  0  0
    4.2800   17.4480   15.7620 O   0  0  0  0  0
    5.9680   17.6540   12.9460 C   0  0  0  0  0
    5.1180   16.4580   12.5480 C   0  0  0  0  0
    4.9780   16.3570   11.0330 C   0  0  0  0  0
    6.2490   15.7930   10.4040 C   0  0  0  0  0
    6.4830   14.3920   10.8750 N   0  3  0  0  0
    4.9230   19.5660   15.3190 N   0  0  0  0  0
    3.8390   20.1950   16.0660 C   0  0  0  0  0
    2.5280   20.1380   15.3050 C   0  0  0  0  0
    2.4620   20.4270   14.1110 O   0  0  0  0  0
    4.2130   21.6510   16.3500 C   0  0  0  0  0
    1.4530   19.7490   16.0220 N   0  0  0  0  0
    0.1430   19.6800   15.4080 C   0  0  0  0  0
   -0.8750   20.5130   16.1950 C   0  0  0  0  0
   -1.9550   20.7840   15.6090 O   0  5  0  0  0
   -0.3480   18.2320   15.2750 C   0  0  0  0  0
   -1.6030   18.1240   14.4160 C   0  0  0  0  0
   -1.5520   17.0510   13.3670 C   0  0  0  0  0
   -2.5720   17.3320   12.2680 C   0  0  0  0  0
   -3.8410   17.8600   12.8360 N   0  3  0  0  0
   -0.5530   20.9080   17.3330 O   0  0  0  0  0
    6.1505   16.1866   15.7743 H   0  0  0  0  0
    7.0600   18.4917   14.5694 H   0  0  0  0  0
    6.9295   17.5839   12.4162 H   0  0  0  0  0
    5.4428   18.5684   12.6330 H   0  0  0  0  0
    4.1181   16.5648   12.9938 H   0  0  0  0  0
    5.5918   15.5401   12.9260 H   0  0  0  0  0
    4.7869   17.3591   10.6215 H   0  0  0  0  0
    4.1331   15.6948   10.7929 H   0  0  0  0  0
    7.1056   16.4204   10.6914 H   0  0  0  0  0
    6.1440   15.7951    9.3090 H   0  0  0  0  0
    6.5912   14.3881   11.8772 H   0  0  0  0  0
    7.3192   14.0283   10.4454 H   0  0  0  0  0
    5.6963   13.8159   10.6198 H   0  0  0  0  0
    5.5991   20.1493   14.8687 H   0  0  0  0  0
    3.7127   19.6632   17.0206 H   0  0  0  0  0
    4.3667   22.1822   15.3991 H   0  0  0  0  0
    5.1398   21.6828   16.9417 H   0  0  0  0  0
    3.4015   22.1348   16.9134 H   0  0  0  0  0
    1.5618   19.5062   16.9860 H   0  0  0  0  0
    0.2233   20.1047   14.3965 H   0  0  0  0  0
   -0.5712   17.8404   16.2784 H   0  0  0  0  0
    0.4487   17.6290   14.8150 H   0  0  0  0  0
   -1.7580   19.0894   13.9120 H   0  0  0  0  0
   -2.4557   17.9155   15.0789 H   0  0  0  0  0
   -1.7778   16.0796   13.8310 H   0  0  0  0  0
   -0.5442   17.0218   12.9272 H   0  0  0  0  0
   -2.7824   16.3982   11.7261 H   0  0  0  0  0
   -2.1542   18.0739   11.5715 H   0  0  0  0  0
   -4.2366   17.1789   13.4650 H   0  0  0  0  0
   -4.4920   18.0454   12.0891 H   0  0  0  0  0
   -3.6546   18.7135   13.3388 H   0  0  0  0  0
    7.6851   16.5432   15.2974 H   0  0  0  0  0
    6.6719   15.7407   14.2781 H   0  0  0  0  0
  3  2  1  0  0  0
  2  5  1  0  0  0
  2  1  1  0  0  0
  5  6  1  0  0  0
  6  7  1  0  0  0
  7  8  1  0  0  0
  8  9  1  0  0  0
  3  4  2  0  0  0
 12 11  1  0  0  0
 11 14  1  0  0  0
 11 10  1  0  0  0
 12 13  2  0  0  0
 16 17  1  0  0  0
 16 19  1  0  0  0
 15 16  1  0  0  0
 19 20  1  0  0  0
 20 21  1  0  0  0
 21 22  1  0  0  0
 22 23  1  0  0  0
 17 24  2  0  0  0
 17 18  1  0  0  0
 10  3  1  0  0  0
 12 15  1  0  0  0
  1 25  1  0  0  0
  2 26  1  0  0  0
  5 27  1  0  0  0
  5 28  1  0  0  0
  6 29  1  0  0  0
  6 30  1  0  0  0
  7 31  1  0  0  0
  7 32  1  0  0  0
  8 33  1  0  0  0
  8 34  1  0  0  0
  9 35  1  0  0  0
  9 36  1  0  0  0
  9 37  1  0  0  0
 10 38  1  0  0  0
 11 39  1  0  0  0
 14 40  1  0  0  0
 14 41  1  0  0  0
 14 42  1  0  0  0
 15 43  1  0  0  0
 16 44  1  0  0  0
 19 45  1  0  0  0
 19 46  1  0  0  0
 20 47  1  0  0  0
 20 48  1  0  0  0
 21 49  1  0  0  0
 21 50  1  0  0  0
 22 51  1  0  0  0
 22 52  1  0  0  0
 23 53  1  0  0  0
 23 54  1  0  0  0
 23 55  1  0  0  0
  1 56  1  0  0  0
  1 57  1  0  0  0
M  END
$$$$
