1b6k_ligand
  -I-interpret- 

103106  0  0  0  0  0  0  0  0999 V2000
    5.0061    3.3997    8.2037 H   0  0  0  0  0
    3.3855    3.7691    7.5224 H   0  0  0  0  0
    4.0384    1.5029    9.1332 H   0  0  0  0  0
    2.3781    2.0900    8.7787 H   0  0  0  0  0
    3.0453    5.4812    9.0249 H   0  0  0  0  0
    4.7998    5.3572    9.3897 H   0  0  0  0  0
    2.7320    2.7876   12.6414 H   0  0  0  0  0
    1.7780    0.5772   10.7296 H   0  0  0  0  0
    0.3560   -0.1232   12.6300 H   0  0  0  0  0
    1.1112    1.1398   13.6601 H   0  0  0  0  0
    2.1008   -0.2270   13.0442 H   0  0  0  0  0
    0.6965    2.7742   10.3502 H   0  0  0  0  0
    0.2793    2.8653   12.0949 H   0  0  0  0  0
   -0.4483    1.5877   11.0629 H   0  0  0  0  0
    4.8231    2.6506   13.3393 H   0  0  0  0  0
    6.2890    0.1138   12.7511 H   0  0  0  0  0
    8.3323    1.3360   13.4122 H   0  0  0  0  0
    7.3495    2.8088   13.7150 H   0  0  0  0  0
    7.8780    0.2976   10.9617 H   0  0  0  0  0
    7.3536    4.3964   12.0457 H   0  0  0  0  0
    8.0894    0.9461    8.5952 H   0  0  0  0  0
    7.5664    5.0533    9.6812 H   0  0  0  0  0
    6.0928    1.5220   15.4484 H   0  0  0  0  0
    5.0512   -1.1934   14.4834 H   0  0  0  0  0
    4.0478    0.2419   14.8831 H   0  0  0  0  0
    7.3724   -0.3316   16.0511 H   0  0  0  0  0
    7.8652    4.3329    7.5925 H   0  0  0  0  0
    4.3022   -0.1378   17.0008 H   0  0  0  0  0
    5.9239   -0.3974   16.8909 H   0  0  0  0  0
    4.8660   -2.1982   17.9029 H   0  0  0  0  0
    3.2269   -2.2689   15.3539 H   0  0  0  0  0
    2.6681   -2.0702   17.0495 H   0  0  0  0  0
    3.1719   -4.0474   18.6705 H   0  0  0  0  0
    3.1734   -6.5013   18.8828 H   0  0  0  0  0
    3.3063   -4.4098   14.4110 H   0  0  0  0  0
    3.3135   -6.8584   14.6205 H   0  0  0  0  0
    3.2101   -9.7393   18.1982 H   0  0  0  0  0
    3.7676   -8.1616   18.8517 H   0  0  0  0  0
    6.1375   -3.7845   18.1256 H   0  0  0  0  0
    3.9510    3.5910    8.4490 C   0  0  0  0  0
    3.3590    2.3660    9.1930 C   0  0  0  0  0
    3.5310    4.1510   10.6590 C   0  0  0  0  0
    3.5450    4.7720   11.7270 O   0  0  0  0  0
    3.8500    4.8040    9.3470 C   0  0  0  0  0
    3.2290    2.8450   10.5950 N   0  0  0  0  0
    2.9040    2.0930   11.8060 C   0  0  0  0  0
    1.6140    1.2640   11.5730 C   0  0  0  0  0
    1.2720    0.4580   12.8120 C   0  0  0  0  0
    0.4560    2.1860   11.2480 C   0  0  0  0  0
    4.1080    1.2140   12.1230 C   0  0  0  0  0
    4.2510    0.1030   11.5900 O   0  0  0  0  0
    4.9930    1.7390   12.9650 N   0  0  0  0  0
    6.2090    1.0250   13.3620 C   0  0  0  0  0
    7.4370    1.8970   13.1060 C   0  0  0  0  0
    7.5970    2.2990   11.6700 C   0  0  0  0  0
    7.8070    1.3430   10.6840 C   0  0  0  0  0
    7.5140    3.6360   11.2900 C   0  0  0  0  0
    7.9270    1.7030    9.3540 C   0  0  0  0  0
    7.6330    4.0090    9.9640 C   0  0  0  0  0
    7.8380    3.0360    9.0010 C   0  0  0  0  0
    6.1730    0.6200   14.8240 C   0  0  0  0  0
    4.9850   -0.2890   15.1060 C   0  0  0  0  0
    7.3840   -0.0730   15.1370 O   0  0  0  0  0
    7.9460    3.3900    7.6750 O   0  0  0  0  0
    5.0220   -0.6580   16.5240 N   0  3  0  0  0
    4.8090   -2.1090   16.8080 C   0  0  0  0  0
    3.4070   -2.5610   16.3990 C   0  0  0  0  0
    3.2560   -4.0520   16.5240 C   0  0  0  0  0
    3.2090   -4.6630   17.7790 C   0  0  0  0  0
    3.2090   -6.0390   17.9030 C   0  0  0  0  0
    3.2850   -4.8640   15.3950 C   0  0  0  0  0
    3.2870   -6.2380   15.5090 C   0  0  0  0  0
    3.2550   -6.8200   16.7620 C   0  0  0  0  0
    3.2990   -8.1900   16.8510 O   0  0  0  0  0
    3.8180   -8.8460   17.9920 C   0  0  0  0  0
    5.8340   -3.1040   16.2610 C   0  0  0  0  0
    6.0910   -3.1640   15.0560 O   0  0  0  0  0
    6.3990   -3.8970   17.1670 N   0  0  0  0  0
    7.3890   -4.9310   16.8300 C   0  0  0  0  0
    7.0690   -6.0100   17.8670 C   0  0  0  0  0
    7.2130   -5.7790   19.0760 O   0  0  0  0  0
    8.8560   -4.4570   17.0510 C   0  0  0  0  0
    9.2160   -3.3310   16.0840 C   0  0  0  0  0
    9.8250   -5.6170   16.8520 C   0  0  0  0  0
    9.5520   -3.7930   14.6950 C   0  0  0  0  0
    6.5900   -7.1610   17.4020 N   0  0  0  0  0
    6.2670   -8.2470   18.3150 C   0  0  0  0  0
    5.2680   -9.2710   17.7810 C   0  0  0  0  0
    7.2594   -5.2903   15.7985 H   0  0  0  0  0
    8.9525   -4.0843   18.0814 H   0  0  0  0  0
   10.0869   -2.7946   16.4887 H   0  0  0  0  0
    8.3592   -2.6441   16.0207 H   0  0  0  0  0
    9.5699   -6.4310   17.5465 H   0  0  0  0  0
   10.8517   -5.2751   17.0492 H   0  0  0  0  0
    9.7525   -5.9819   15.8169 H   0  0  0  0  0
    9.7975   -2.9228   14.0685 H   0  0  0  0  0
    8.6885   -4.3220   14.2656 H   0  0  0  0  0
   10.4162   -4.4725   14.7335 H   0  0  0  0  0
    6.4511   -7.2804   16.4189 H   0  0  0  0  0
    7.2002   -8.7765   18.5573 H   0  0  0  0  0
    5.8464   -7.8072   19.2313 H   0  0  0  0  0
    5.4424   -9.4034   16.7030 H   0  0  0  0  0
    5.4333  -10.2270   18.2994 H   0  0  0  0  0
 40  1  1  0  0  0
 40  2  1  0  0  0
 41  3  1  0  0  0
 41  4  1  0  0  0
 44  5  1  0  0  0
 44  6  1  0  0  0
 46  7  1  0  0  0
 47  8  1  0  0  0
 48  9  1  0  0  0
 48 10  1  0  0  0
 48 11  1  0  0  0
 49 12  1  0  0  0
 49 13  1  0  0  0
 49 14  1  0  0  0
 52 15  1  0  0  0
 53 16  1  0  0  0
 54 17  1  0  0  0
 54 18  1  0  0  0
 56 19  1  0  0  0
 57 20  1  0  0  0
 58 21  1  0  0  0
 59 22  1  0  0  0
 61 23  1  0  0  0
 62 24  1  0  0  0
 62 25  1  0  0  0
 63 26  1  0  0  0
 64 27  1  0  0  0
 65 28  1  0  0  0
 65 29  1  0  0  0
 66 30  1  0  0  0
 67 31  1  0  0  0
 67 32  1  0  0  0
 44 40  1  0  0  0
 41 40  1  0  0  0
 45 41  1  0  0  0
 46 45  1  0  0  0
 45 42  1  0  0  0
 42 44  1  0  0  0
 42 43  2  0  0  0
 50 46  1  0  0  0
 46 47  1  0  0  0
 47 49  1  0  0  0
 47 48  1  0  0  0
 52 50  1  0  0  0
 50 51  2  0  0  0
 53 52  1  0  0  0
 61 53  1  0  0  0
 53 54  1  0  0  0
 54 55  1  0  0  0
 55 57  4  0  0  0
 55 56  4  0  0  0
 56 58  4  0  0  0
 58 60  4  0  0  0
 60 64  1  0  0  0
 59 60  4  0  0  0
 57 59  4  0  0  0
 61 63  1  0  0  0
 62 61  1  0  0  0
 65 62  1  0  0  0
 66 65  1  0  0  0
 66 76  1  0  0  0
 66 67  1  0  0  0
 67 68  1  0  0  0
 68 71  4  0  0  0
 68 69  4  0  0  0
 69 70  4  0  0  0
 70 73  4  0  0  0
 73 74  1  0  0  0
 73 72  4  0  0  0
 72 71  4  0  0  0
 74 75  1  0  0  0
 75 88  1  0  0  0
 88 87  1  0  0  0
 87 86  1  0  0  0
 86 80  1  0  0  0
 80 81  2  0  0  0
 80 79  1  0  0  0
 79 82  1  0  0  0
 79 78  1  0  0  0
 78 76  1  0  0  0
 76 77  2  0  0  0
 82 84  1  0  0  0
 82 83  1  0  0  0
 83 85  1  0  0  0
 69 33  1  0  0  0
 70 34  1  0  0  0
 71 35  1  0  0  0
 72 36  1  0  0  0
 75 37  1  0  0  0
 75 38  1  0  0  0
 78 39  1  0  0  0
 79 89  1  0  0  0
 82 90  1  0  0  0
 83 91  1  0  0  0
 83 92  1  0  0  0
 84 93  1  0  0  0
 84 94  1  0  0  0
 84 95  1  0  0  0
 85 96  1  0  0  0
 85 97  1  0  0  0
 85 98  1  0  0  0
 86 99  1  0  0  0
 87100  1  0  0  0
 87101  1  0  0  0
 88102  1  0  0  0
 88103  1  0  0  0
M  END
$$$$
