### 
### Created by X-TOOL on Mon Oct 24 22:51:40 2005
### 

@<TRIPOS>MOLECULE
1b6k_ligand
  103   106     1     0     0
SMALL
GAST_HUCK


@<TRIPOS>ATOM
      1 H401        5.0061    3.3997    8.2037 H         1 SUB1        0.031
      2 H402        3.3855    3.7691    7.5224 H         1 SUB1        0.031
      3 H411        4.0384    1.5029    9.1332 H         1 SUB1        0.052
      4 H412        2.3781    2.0900    8.7787 H         1 SUB1        0.052
      5 H441        3.0453    5.4812    9.0249 H         1 SUB1        0.050
      6 H442        4.7998    5.3572    9.3897 H         1 SUB1        0.050
      7 H461        2.7320    2.7876   12.6414 H         1 SUB1        0.080
      8 H471        1.7780    0.5772   10.7296 H         1 SUB1        0.034
      9 H481        0.3560   -0.1232   12.6300 H         1 SUB1        0.023
     10 H482        1.1112    1.1398   13.6601 H         1 SUB1        0.023
     11 H483        2.1008   -0.2270   13.0442 H         1 SUB1        0.023
     12 H491        0.6965    2.7742   10.3502 H         1 SUB1        0.023
     13 H492        0.2793    2.8653   12.0949 H         1 SUB1        0.023
     14 H493       -0.4483    1.5877   11.0629 H         1 SUB1        0.023
     15 H521        4.8231    2.6506   13.3393 H         1 SUB1        0.186
     16 H531        6.2890    0.1138   12.7511 H         1 SUB1        0.060
     17 H541        8.3323    1.3360   13.4122 H         1 SUB1        0.043
     18 H542        7.3495    2.8088   13.7150 H         1 SUB1        0.043
     19 H561        7.8780    0.2976   10.9617 H         1 SUB1        0.053
     20 H571        7.3536    4.3964   12.0457 H         1 SUB1        0.053
     21 H581        8.0894    0.9461    8.5952 H         1 SUB1        0.052
     22 H591        7.5664    5.0533    9.6812 H         1 SUB1        0.052
     23 H611        6.0928    1.5220   15.4484 H         1 SUB1        0.067
     24 H621        5.0512   -1.1934   14.4834 H         1 SUB1        0.084
     25 H622        4.0478    0.2419   14.8831 H         1 SUB1        0.084
     26 H631        7.3724   -0.3316   16.0511 H         1 SUB1        0.210
     27 H641        7.8652    4.3329    7.5925 H         1 SUB1        0.246
     28 H651        4.3022   -0.1378   17.0008 H         1 SUB1        0.204
     29 H652        5.9239   -0.3974   16.8909 H         1 SUB1        0.204
     30 H661        4.8660   -2.1982   17.9029 H         1 SUB1        0.112
     31 H671        3.2269   -2.2689   15.3539 H         1 SUB1        0.049
     32 H672        2.6681   -2.0702   17.0495 H         1 SUB1        0.049
     33 H691        3.1719   -4.0474   18.6705 H         1 SUB1        0.053
     34 H701        3.1734   -6.5013   18.8828 H         1 SUB1        0.052
     35 H711        3.3063   -4.4098   14.4110 H         1 SUB1        0.053
     36 H721        3.3135   -6.8584   14.6205 H         1 SUB1        0.052
     37 H751        3.2101   -9.7393   18.1982 H         1 SUB1        0.061
     38 H752        3.7676   -8.1616   18.8517 H         1 SUB1        0.061
     39 H781        6.1375   -3.7845   18.1256 H         1 SUB1        0.189
     40 C1          3.9510    3.5910    8.4490 C.3       1 SUB1       -0.015
     41 C2          3.3590    2.3660    9.1930 C.3       1 SUB1        0.039
     42 C3          3.5310    4.1510   10.6590 C.2       1 SUB1        0.181
     43 O4          3.5450    4.7720   11.7270 O.2       1 SUB1       -0.397
     44 C5          3.8500    4.8040    9.3470 C.3       1 SUB1        0.039
     45 N6          3.2290    2.8450   10.5950 N.am      1 SUB1       -0.251
     46 C7          2.9040    2.0930   11.8060 C.3       1 SUB1        0.136
     47 C8          1.6140    1.2640   11.5730 C.3       1 SUB1       -0.006
     48 C9          1.2720    0.4580   12.8120 C.3       1 SUB1       -0.058
     49 C10         0.4560    2.1860   11.2480 C.3       1 SUB1       -0.058
     50 C11         4.1080    1.2140   12.1230 C.2       1 SUB1        0.203
     51 O12         4.2510    0.1030   11.5900 O.2       1 SUB1       -0.394
     52 N13         4.9930    1.7390   12.9650 N.am      1 SUB1       -0.278
     53 C14         6.2090    1.0250   13.3620 C.3       1 SUB1        0.081
     54 C15         7.4370    1.8970   13.1060 C.3       1 SUB1        0.002
     55 C16         7.5970    2.2990   11.6700 C.ar      1 SUB1       -0.052
     56 C17         7.8070    1.3430   10.6840 C.ar      1 SUB1       -0.069
     57 C18         7.5140    3.6360   11.2900 C.ar      1 SUB1       -0.069
     58 C19         7.9270    1.7030    9.3540 C.ar      1 SUB1       -0.040
     59 C20         7.6330    4.0090    9.9640 C.ar      1 SUB1       -0.040
     60 C21         7.8380    3.0360    9.0010 C.ar      1 SUB1        0.080
     61 C22         6.1730    0.6200   14.8240 C.3       1 SUB1        0.119
     62 C23         4.9850   -0.2890   15.1060 C.3       1 SUB1       -0.002
     63 O24         7.3840   -0.0730   15.1370 O.3       1 SUB1       -0.384
     64 O25         7.9460    3.3900    7.6750 O.3       1 SUB1       -0.338
     65 N26         5.0220   -0.6580   16.5240 N.4       1 SUB1        0.249
     66 C27         4.8090   -2.1090   16.8080 C.3       1 SUB1        0.075
     67 C28         3.4070   -2.5610   16.3990 C.3       1 SUB1        0.037
     68 C29         3.2560   -4.0520   16.5240 C.ar      1 SUB1       -0.046
     69 C30         3.2090   -4.6630   17.7790 C.ar      1 SUB1       -0.068
     70 C31         3.2090   -6.0390   17.9030 C.ar      1 SUB1       -0.040
     71 C32         3.2850   -4.8640   15.3950 C.ar      1 SUB1       -0.068
     72 C33         3.2870   -6.2380   15.5090 C.ar      1 SUB1       -0.040
     73 C34         3.2550   -6.8200   16.7620 C.ar      1 SUB1        0.084
     74 O35         3.2990   -8.1900   16.8510 O.3       1 SUB1       -0.322
     75 C36         3.8180   -8.8460   17.9920 C.3       1 SUB1        0.071
     76 C37         5.8340   -3.1040   16.2610 C.2       1 SUB1        0.229
     77 O38         6.0910   -3.1640   15.0560 O.2       1 SUB1       -0.391
     78 N39         6.3990   -3.8970   17.1670 N.am      1 SUB1       -0.261
     79 C40         7.3890   -4.9310   16.8300 C.3       1 SUB1        0.133
     80 C41         7.0690   -6.0100   17.8670 C.2       1 SUB1        0.202
     81 O42         7.2130   -5.7790   19.0760 O.2       1 SUB1       -0.394
     82 C43         8.8560   -4.4570   17.0510 C.3       1 SUB1       -0.004
     83 C44         9.2160   -3.3310   16.0840 C.3       1 SUB1       -0.049
     84 C45         9.8250   -5.6170   16.8520 C.3       1 SUB1       -0.058
     85 C46         9.5520   -3.7930   14.6950 C.3       1 SUB1       -0.065
     86 N47         6.5900   -7.1610   17.4020 N.am      1 SUB1       -0.285
     87 C48         6.2670   -8.2470   18.3150 C.3       1 SUB1        0.033
     88 C49         5.2680   -9.2710   17.7810 C.3       1 SUB1       -0.005
     89 H791        7.2594   -5.2903   15.7985 H         1 SUB1        0.080
     90 H821        8.9525   -4.0843   18.0814 H         1 SUB1        0.034
     91 H831       10.0869   -2.7946   16.4887 H         1 SUB1        0.027
     92 H832        8.3592   -2.6441   16.0207 H         1 SUB1        0.027
     93 H841        9.5699   -6.4310   17.5465 H         1 SUB1        0.023
     94 H842       10.8517   -5.2751   17.0492 H         1 SUB1        0.023
     95 H843        9.7525   -5.9819   15.8169 H         1 SUB1        0.023
     96 H851        9.7975   -2.9228   14.0685 H         1 SUB1        0.023
     97 H852        8.6885   -4.3220   14.2656 H         1 SUB1        0.023
     98 H853       10.4162   -4.4725   14.7335 H         1 SUB1        0.023
     99 H861        6.4511   -7.2804   16.4189 H         1 SUB1        0.185
    100 H871        7.2002   -8.7765   18.5573 H         1 SUB1        0.052
    101 H872        5.8464   -7.8072   19.2313 H         1 SUB1        0.052
    102 H881        5.4424   -9.4034   16.7030 H         1 SUB1        0.031
    103 H882        5.4333  -10.2270   18.2994 H         1 SUB1        0.031
@<TRIPOS>BOND
     1   40    1 1  
     2   40    2 1  
     3   41    3 1  
     4   41    4 1  
     5   44    5 1  
     6   44    6 1  
     7   46    7 1  
     8   47    8 1  
     9   48    9 1  
    10   48   10 1  
    11   48   11 1  
    12   49   12 1  
    13   49   13 1  
    14   49   14 1  
    15   52   15 1  
    16   53   16 1  
    17   54   17 1  
    18   54   18 1  
    19   56   19 1  
    20   57   20 1  
    21   58   21 1  
    22   59   22 1  
    23   61   23 1  
    24   62   24 1  
    25   62   25 1  
    26   63   26 1  
    27   64   27 1  
    28   65   28 1  
    29   65   29 1  
    30   66   30 1  
    31   67   31 1  
    32   67   32 1  
    33   44   40 1  
    34   41   40 1  
    35   45   41 1  
    36   46   45 1  
    37   45   42 am 
    38   42   44 1  
    39   42   43 2  
    40   50   46 1  
    41   46   47 1  
    42   47   49 1  
    43   47   48 1  
    44   52   50 am 
    45   50   51 2  
    46   53   52 1  
    47   61   53 1  
    48   53   54 1  
    49   54   55 1  
    50   55   57 ar 
    51   55   56 ar 
    52   56   58 ar 
    53   58   60 ar 
    54   60   64 1  
    55   59   60 ar 
    56   57   59 ar 
    57   61   63 1  
    58   62   61 1  
    59   65   62 1  
    60   66   65 1  
    61   66   76 1  
    62   66   67 1  
    63   67   68 1  
    64   68   71 ar 
    65   68   69 ar 
    66   69   70 ar 
    67   70   73 ar 
    68   73   74 1  
    69   73   72 ar 
    70   72   71 ar 
    71   74   75 1  
    72   75   88 1  
    73   88   87 1  
    74   87   86 1  
    75   86   80 am 
    76   80   81 2  
    77   80   79 1  
    78   79   82 1  
    79   79   78 1  
    80   78   76 am 
    81   76   77 2  
    82   82   84 1  
    83   82   83 1  
    84   83   85 1  
    85   69   33 1  
    86   70   34 1  
    87   71   35 1  
    88   72   36 1  
    89   75   37 1  
    90   75   38 1  
    91   78   39 1  
    92   79   89 1  
    93   82   90 1  
    94   83   91 1  
    95   83   92 1  
    96   84   93 1  
    97   84   94 1  
    98   84   95 1  
    99   85   96 1  
   100   85   97 1  
   101   85   98 1  
   102   86   99 1  
   103   87  100 1  
   104   87  101 1  
   105   88  102 1  
   106   88  103 1  
@<TRIPOS>SUBSTRUCTURE
     1 SUB1        1 GROUP

