### 
### Created by X-TOOL on Mon Oct 24 22:01:21 2005
### 

@<TRIPOS>MOLECULE
1o3f_ligand
   43    46     1     0     0
SMALL
GAST_HUCK


@<TRIPOS>ATOM
      1 C1         44.2570   -3.0900   26.6230 C.ar      1 SUB1        0.169
      2 C2         44.6160   -1.6990   26.6140 C.ar      1 SUB1       -0.022
      3 C3         44.5970   -0.9100   27.7630 C.ar      1 SUB1       -0.039
      4 C4         44.2190   -1.5220   28.9120 C.ar      1 SUB1        0.063
      5 C5         43.8760   -2.8110   28.9950 C.ar      1 SUB1       -0.023
      6 C6         43.8740   -3.6490   27.8750 C.ar      1 SUB1       -0.021
      7 C7         44.3090   -3.8330   25.4280 C.cat     1 SUB1        0.309
      8 N1         44.0290   -5.1160   25.4280 N.pl3     1 SUB1       -0.201
      9 N2         44.6390   -3.2350   24.3000 N.pl3     1 SUB1       -0.201
     10 N3         44.1380   -1.0270   30.0930 N.pl3     1 SUB1       -0.276
     11 CN4        43.5630   -3.1650   30.2360 C.2       1 SUB1       -0.058
     12 C8         43.7520   -2.0100   30.8460 C.2       1 SUB1        0.061
     13 C1'        43.4930   -1.8600   32.2100 C.ar      1 SUB1        0.038
     14 C2'        43.2460   -2.9610   33.0230 C.ar      1 SUB1       -0.059
     15 C3'        42.9840   -2.8260   34.3670 C.ar      1 SUB1       -0.071
     16 C4'        42.9590   -1.5750   34.9360 C.ar      1 SUB1       -0.062
     17 C5'        43.1980   -0.4060   34.1790 C.ar      1 SUB1        0.015
     18 C6'        43.4640   -0.5890   32.8210 C.ar      1 SUB1        0.112
     19 O6'        43.7270    0.5210   32.0460 O.3       1 SUB1       -0.327
     20 C1''       43.1380    0.8680   34.7920 C.ar      1 SUB1       -0.022
     21 C2''       44.1270    1.8280   34.6310 C.ar      1 SUB1       -0.057
     22 C3''       44.0730    3.0550   35.2570 C.ar      1 SUB1       -0.063
     23 C4''       43.0170    3.3770   36.0720 C.ar      1 SUB1       -0.064
     24 C5''       41.9940    2.4580   36.2690 C.ar      1 SUB1       -0.063
     25 C6''       42.0620    1.2220   35.6310 C.ar      1 SUB1       -0.057
     26 H21        44.9160   -1.2250   25.6940 H         1 SUB1        0.058
     27 H31        44.8660    0.1330   27.7500 H         1 SUB1        0.054
     28 H61        43.5880   -4.6850   27.9640 H         1 SUB1        0.058
     29 H81        43.7980   -5.5580   26.3100 H         1 SUB1        0.192
     30 H82        44.0470   -5.7160   24.6330 H         1 SUB1        0.192
     31 H91        44.8360   -2.2480   24.2980 H         1 SUB1        0.192
     32 H92        44.7520   -3.7170   23.4350 H         1 SUB1        0.192
     33 H101       44.3350   -0.1070   30.3450 H         1 SUB1        0.223
     34 H141       43.2610   -3.9500   32.5900 H         1 SUB1        0.059
     35 H151       42.7980   -3.6970   34.9740 H         1 SUB1        0.053
     36 H161       42.7490   -1.4960   35.9920 H         1 SUB1        0.059
     37 H211       44.9600    1.6120   33.9880 H         1 SUB1        0.061
     38 H221       44.8660    3.7680   35.1130 H         1 SUB1        0.061
     39 H231       42.9860    4.3420   36.5520 H         1 SUB1        0.060
     40 H241       41.1550    2.6990   36.9070 H         1 SUB1        0.061
     41 H251       41.2570    0.5190   35.7890 H         1 SUB1        0.061
     42 H111       43.2437   -4.1271   30.6340 H         1 SUB1        0.030
     43 H191       43.8887    0.2493   31.1501 H         1 SUB1        0.252
@<TRIPOS>BOND
     1    1    2 ar 
     2    1    6 ar 
     3    1    7 1  
     4    2    3 ar 
     5    2   26 1  
     6    3    4 ar 
     7    3   27 1  
     8    4    5 ar 
     9    4   10 1  
    10    5    6 ar 
    11    5   11 1  
    12    6   28 1  
    13    7    8 1  
    14    7    9 1  
    15    8   29 1  
    16    8   30 1  
    17    9   31 1  
    18    9   32 1  
    19   10   12 1  
    20   10   33 1  
    21   11   12 2  
    22   12   13 1  
    23   13   14 ar 
    24   13   18 ar 
    25   14   15 ar 
    26   14   34 1  
    27   15   16 ar 
    28   15   35 1  
    29   16   17 ar 
    30   16   36 1  
    31   17   18 ar 
    32   17   20 1  
    33   18   19 1  
    34   20   21 ar 
    35   20   25 ar 
    36   21   22 ar 
    37   21   37 1  
    38   22   23 ar 
    39   22   38 1  
    40   23   24 ar 
    41   23   39 1  
    42   24   25 ar 
    43   24   40 1  
    44   25   41 1  
    45   11   42 1  
    46   19   43 1  
@<TRIPOS>SUBSTRUCTURE
     1 SUB1        1 GROUP

