1o3f_ligand
  -I-interpret- 

 43 46  0  0  0  0  0  0  0  0999 V2000
   44.2570   -3.0900   26.6230 C   0  0  0  0  0
   44.6160   -1.6990   26.6140 C   0  0  0  0  0
   44.5970   -0.9100   27.7630 C   0  0  0  0  0
   44.2190   -1.5220   28.9120 C   0  0  0  0  0
   43.8760   -2.8110   28.9950 C   0  0  0  0  0
   43.8740   -3.6490   27.8750 C   0  0  0  0  0
   44.3090   -3.8330   25.4280 C   0  3  0  0  0
   44.0290   -5.1160   25.4280 N   0  0  0  0  0
   44.6390   -3.2350   24.3000 N   0  0  0  0  0
   44.1380   -1.0270   30.0930 N   0  0  0  0  0
   43.5630   -3.1650   30.2360 C   0  0  0  0  0
   43.7520   -2.0100   30.8460 C   0  0  0  0  0
   43.4930   -1.8600   32.2100 C   0  0  0  0  0
   43.2460   -2.9610   33.0230 C   0  0  0  0  0
   42.9840   -2.8260   34.3670 C   0  0  0  0  0
   42.9590   -1.5750   34.9360 C   0  0  0  0  0
   43.1980   -0.4060   34.1790 C   0  0  0  0  0
   43.4640   -0.5890   32.8210 C   0  0  0  0  0
   43.7270    0.5210   32.0460 O   0  0  0  0  0
   43.1380    0.8680   34.7920 C   0  0  0  0  0
   44.1270    1.8280   34.6310 C   0  0  0  0  0
   44.0730    3.0550   35.2570 C   0  0  0  0  0
   43.0170    3.3770   36.0720 C   0  0  0  0  0
   41.9940    2.4580   36.2690 C   0  0  0  0  0
   42.0620    1.2220   35.6310 C   0  0  0  0  0
   44.9160   -1.2250   25.6940 H   0  0  0  0  0
   44.8660    0.1330   27.7500 H   0  0  0  0  0
   43.5880   -4.6850   27.9640 H   0  0  0  0  0
   43.7980   -5.5580   26.3100 H   0  0  0  0  0
   44.0470   -5.7160   24.6330 H   0  0  0  0  0
   44.8360   -2.2480   24.2980 H   0  0  0  0  0
   44.7520   -3.7170   23.4350 H   0  0  0  0  0
   44.3350   -0.1070   30.3450 H   0  0  0  0  0
   43.2610   -3.9500   32.5900 H   0  0  0  0  0
   42.7980   -3.6970   34.9740 H   0  0  0  0  0
   42.7490   -1.4960   35.9920 H   0  0  0  0  0
   44.9600    1.6120   33.9880 H   0  0  0  0  0
   44.8660    3.7680   35.1130 H   0  0  0  0  0
   42.9860    4.3420   36.5520 H   0  0  0  0  0
   41.1550    2.6990   36.9070 H   0  0  0  0  0
   41.2570    0.5190   35.7890 H   0  0  0  0  0
   43.2437   -4.1271   30.6340 H   0  0  0  0  0
   43.8887    0.2493   31.1501 H   0  0  0  0  0
  1  2  4  0  0  0
  1  6  4  0  0  0
  1  7  1  0  0  0
  2  3  4  0  0  0
  2 26  1  0  0  0
  3  4  4  0  0  0
  3 27  1  0  0  0
  4  5  4  0  0  0
  4 10  1  0  0  0
  5  6  4  0  0  0
  5 11  1  0  0  0
  6 28  1  0  0  0
  7  8  1  0  0  0
  7  9  1  0  0  0
  8 29  1  0  0  0
  8 30  1  0  0  0
  9 31  1  0  0  0
  9 32  1  0  0  0
 10 12  1  0  0  0
 10 33  1  0  0  0
 11 12  2  0  0  0
 12 13  1  0  0  0
 13 14  4  0  0  0
 13 18  4  0  0  0
 14 15  4  0  0  0
 14 34  1  0  0  0
 15 16  4  0  0  0
 15 35  1  0  0  0
 16 17  4  0  0  0
 16 36  1  0  0  0
 17 18  4  0  0  0
 17 20  1  0  0  0
 18 19  1  0  0  0
 20 21  4  0  0  0
 20 25  4  0  0  0
 21 22  4  0  0  0
 21 37  1  0  0  0
 22 23  4  0  0  0
 22 38  1  0  0  0
 23 24  4  0  0  0
 23 39  1  0  0  0
 24 25  4  0  0  0
 24 40  1  0  0  0
 25 41  1  0  0  0
 11 42  1  0  0  0
 19 43  1  0  0  0
M  END
$$$$
