### 
### Created by X-TOOL on Tue Oct 25 02:04:07 2005
### 

@<TRIPOS>MOLECULE
1dl7_ligand
   37    37     1     0     0
SMALL
GAST_HUCK


@<TRIPOS>ATOM
      1 O4        106.0490   23.8740   17.7300 O.co2     1 SUB1       -0.381
      2 P1        106.5490   23.7800   19.1090 P.3       1 SUB1        0.513
      3 O1        107.4320   22.6010   19.2430 O.co2     1 SUB1       -0.381
      4 O3        107.3350   25.0890   19.4760 O.3       1 SUB1       -0.093
      5 O2        105.3290   23.5560   20.1330 O.3       1 SUB1       -0.149
      6 C1        104.4020   22.5820   19.6700 C.3       1 SUB1        0.156
      7 C2        103.8450   21.7860   20.8170 C.3       1 SUB1        0.004
      8 N1        102.5080   21.2700   20.3740 N.4       1 SUB1        0.239
      9 C3        102.6780   20.2140   19.3010 C.3       1 SUB1       -0.042
     10 C5        101.6490   22.4260   19.9000 C.3       1 SUB1       -0.042
     11 C4        101.8120   20.4330   21.4370 C.3       1 SUB1       -0.042
     12 C1A       107.3880   28.2420   16.4320 C.ar      1 SUB1        0.129
     13 N1A       107.3880   29.2840   15.4390 N.2       1 SUB1        0.036
     14 O1N       108.6020   29.8800   15.0700 O.2       1 SUB1       -0.153
     15 O2N       106.1330   29.6270   14.9180 O.2       1 SUB1       -0.153
     16 C2A       108.5520   27.8280   17.0170 C.ar      1 SUB1       -0.029
     17 C3A       108.5220   26.8300   17.9650 C.ar      1 SUB1       -0.012
     18 C4A       107.3380   26.2260   18.3450 C.ar      1 SUB1        0.172
     19 C5A       106.1800   26.6650   17.7510 C.ar      1 SUB1       -0.012
     20 C6A       106.2120   27.6680   16.7950 C.ar      1 SUB1       -0.029
     21 H61       104.9125   21.9011   18.9731 H         1 SUB1        0.074
     22 H62       103.5766   23.0890   19.1488 H         1 SUB1        0.074
     23 H71       103.7292   22.4276   21.7030 H         1 SUB1        0.085
     24 H72       104.5147   20.9470   21.0569 H         1 SUB1        0.085
     25 H91       101.6894   19.8469   18.9880 H         1 SUB1        0.078
     26 H92       103.2701   19.3774   19.7004 H         1 SUB1        0.078
     27 H93       103.1977   20.6509   18.4356 H         1 SUB1        0.078
     28 H101      101.5525   23.1664   20.7078 H         1 SUB1        0.078
     29 H102      100.6519   22.0527   19.6237 H         1 SUB1        0.078
     30 H103      102.1195   22.8977   19.0247 H         1 SUB1        0.078
     31 H111      101.6046   21.0580   22.3181 H         1 SUB1        0.078
     32 H112      102.4620   19.5944   21.7272 H         1 SUB1        0.078
     33 H113      100.8662   20.0415   21.0343 H         1 SUB1        0.078
     34 H161      109.4946   28.2835   16.7357 H         1 SUB1        0.067
     35 H171      109.4499   26.5099   18.4249 H         1 SUB1        0.059
     36 H191      105.2314   26.2225   18.0328 H         1 SUB1        0.059
     37 H201      105.2888   27.9977   16.3323 H         1 SUB1        0.067
@<TRIPOS>BOND
     1    1    2 2  
     2    2    5 1  
     3    2    4 1  
     4    2    3 2  
     5    4   18 1  
     6   18   19 ar 
     7   18   17 ar 
     8   17   16 ar 
     9   16   12 ar 
    10   12   20 ar 
    11   12   13 1  
    12   13   15 2  
    13   13   14 2  
    14   20   19 ar 
    15    5    6 1  
    16    6    7 1  
    17    7    8 1  
    18    8   11 1  
    19    8   10 1  
    20    8    9 1  
    21    6   21 1  
    22    6   22 1  
    23    7   23 1  
    24    7   24 1  
    25    9   25 1  
    26    9   26 1  
    27    9   27 1  
    28   10   28 1  
    29   10   29 1  
    30   10   30 1  
    31   11   31 1  
    32   11   32 1  
    33   11   33 1  
    34   16   34 1  
    35   17   35 1  
    36   19   36 1  
    37   20   37 1  
@<TRIPOS>SUBSTRUCTURE
     1 SUB1        1 GROUP

