### 
### Created by X-TOOL on Tue Oct 25 01:47:32 2005
### 

@<TRIPOS>MOLECULE
1gno_ligand
   95    95     1     0     0
SMALL
GAST_HUCK


@<TRIPOS>ATOM
      1 C1        -10.6580   15.8380   32.1840 C.3       1 SUB1        0.026
      2 C2        -10.2920   15.5260   30.7320 C.2       1 SUB1        0.173
      3 C3        -10.8580   15.9720   28.3960 C.3       1 SUB1        0.068
      4 C4        -12.1480   15.7030   27.6380 C.3       1 SUB1       -0.025
      5 C5        -13.0410   14.5040   28.0270 C.3       1 SUB1       -0.039
      6 C6        -12.1770   13.2660   28.2840 C.3       1 SUB1       -0.050
      7 C7        -13.0650   12.0760   28.6400 C.3       1 SUB1       -0.053
      8 C8        -13.9120   12.3800   29.8790 C.3       1 SUB1       -0.053
      9 C9        -14.7710   13.6310   29.6580 C.3       1 SUB1       -0.053
     10 C10       -13.8950   14.8270   29.2670 C.3       1 SUB1       -0.050
     11 C11       -10.4060   17.2960   27.7610 C.3       1 SUB1        0.080
     12 C12        -8.9050   17.5510   27.8090 C.3       1 SUB1       -0.005
     13 C13        -8.1610   18.2170   26.6510 C.3       1 SUB1        0.054
     14 C14        -6.8790   18.8810   27.1530 C.3       1 SUB1       -0.027
     15 C15        -5.6790   17.9340   27.1520 C.3       1 SUB1       -0.060
     16 C16        -6.4590   20.0850   26.3060 C.3       1 SUB1       -0.060
     17 C17        -7.7980   17.1670   25.6040 C.2       1 SUB1        0.182
     18 C18        -7.5590   16.7590   23.1990 C.3       1 SUB1        0.133
     19 C19        -8.8370   16.3650   22.4540 C.3       1 SUB1        0.004
     20 C20        -9.2150   17.3510   21.3470 C.3       1 SUB1        0.041
     21 C21        -8.7320   16.9150   19.9610 C.2       1 SUB1        0.174
     22 C22        -6.6430   17.5360   22.2540 C.2       1 SUB1        0.204
     23 C23        -4.6500   17.3860   20.8390 C.3       1 SUB1        0.131
     24 C24        -4.5800   16.5400   19.5670 C.2       1 SUB1        0.199
     25 C25        -3.2730   17.4010   21.5050 C.3       1 SUB1       -0.011
     26 C26        -3.0540   18.6220   22.4000 C.3       1 SUB1       -0.030
     27 C27        -1.5900   18.8180   22.7970 C.3       1 SUB1        0.051
     28 C28         0.3210   20.2910   22.2100 C.cat     1 SUB1        0.387
     29 N1        -11.0620   16.1200   29.8420 N.am      1 SUB1       -0.282
     30 N2         -7.8840   17.5980   24.3610 N.am      1 SUB1       -0.265
     31 N3         -8.2410   15.7020   19.7840 N.am      1 SUB1       -0.301
     32 N4         -5.6480   16.8260   21.7620 N.am      1 SUB1       -0.264
     33 N5         -3.9870   17.0080   18.4600 N.am      1 SUB1       -0.299
     34 N6         -0.9940   20.0310   22.2160 N.pl3     1 SUB1       -0.170
     35 N7          1.1270   19.7980   23.1610 N.pl3     1 SUB1       -0.183
     36 N8          0.9310   21.0430   21.2850 N.pl3     1 SUB1       -0.183
     37 O1         -9.3530   14.7650   30.4570 O.2       1 SUB1       -0.397
     38 O2        -11.0340   18.3910   28.4100 O.3       1 SUB1       -0.389
     39 O3         -7.4630   16.0230   25.9400 O.2       1 SUB1       -0.397
     40 O4         -8.8020   17.6930   19.0110 O.2       1 SUB1       -0.397
     41 O5         -6.8540   18.7320   22.0030 O.2       1 SUB1       -0.394
     42 O6         -5.0700   15.4020   19.5300 O.2       1 SUB1       -0.395
     43 H11        -9.9705   15.3058   32.8579 H         1 SUB1        0.047
     44 H12       -11.6899   15.5115   32.3803 H         1 SUB1        0.047
     45 H13       -10.5767   16.9211   32.3581 H         1 SUB1        0.047
     46 H31       -10.1240   15.1723   28.2181 H         1 SUB1        0.058
     47 H41       -11.8720   15.5630   26.5825 H         1 SUB1        0.029
     48 H42       -12.7685   16.6057   27.7382 H         1 SUB1        0.029
     49 H51       -13.7182   14.2894   27.1872 H         1 SUB1        0.030
     50 H61       -11.4881   13.4688   29.1172 H         1 SUB1        0.027
     51 H62       -11.5983   13.0310   27.3786 H         1 SUB1        0.027
     52 H71       -12.4305   11.2007   28.8430 H         1 SUB1        0.026
     53 H72       -13.7314   11.8572   27.7926 H         1 SUB1        0.026
     54 H81       -13.2465   12.5469   30.7388 H         1 SUB1        0.026
     55 H82       -14.5697   11.5228   30.0854 H         1 SUB1        0.026
     56 H91       -15.3109   13.8671   30.5868 H         1 SUB1        0.026
     57 H92       -15.4945   13.4348   28.8530 H         1 SUB1        0.026
     58 H101      -14.5415   15.6886   29.0440 H         1 SUB1        0.027
     59 H102      -13.2298   15.0754   30.1071 H         1 SUB1        0.027
     60 H111      -10.7159   17.2788   26.7057 H         1 SUB1        0.062
     61 H121       -8.4301   16.5699   27.9570 H         1 SUB1        0.032
     62 H122       -8.7274   18.1814   28.6928 H         1 SUB1        0.032
     63 H131       -8.8104   18.9790   26.1954 H         1 SUB1        0.054
     64 H141       -7.0642   19.2189   28.1833 H         1 SUB1        0.032
     65 H151       -4.7908   18.4673   27.5218 H         1 SUB1        0.023
     66 H152       -5.4932   17.5786   26.1277 H         1 SUB1        0.023
     67 H153       -5.8894   17.0748   27.8058 H         1 SUB1        0.023
     68 H161       -7.2846   20.8108   26.2657 H         1 SUB1        0.023
     69 H162       -6.2157   19.7495   25.2871 H         1 SUB1        0.023
     70 H163       -5.5750   20.5599   26.7566 H         1 SUB1        0.023
     71 H181       -7.0443   15.8493   23.5418 H         1 SUB1        0.080
     72 H191       -9.6638   16.3179   23.1780 H         1 SUB1        0.034
     73 H192       -8.6875   15.3729   22.0030 H         1 SUB1        0.034
     74 H201       -8.7681   18.3284   21.5816 H         1 SUB1        0.050
     75 H202      -10.3106   17.4453   21.3218 H         1 SUB1        0.050
     76 H231       -4.9388   18.4145   20.5766 H         1 SUB1        0.080
     77 H251       -2.5036   17.4004   20.7189 H         1 SUB1        0.031
     78 H252       -3.1708   16.4939   22.1188 H         1 SUB1        0.031
     79 H261       -3.6515   18.4974   23.3151 H         1 SUB1        0.028
     80 H262       -3.3934   19.5180   21.8596 H         1 SUB1        0.028
     81 H271       -1.0141   17.9458   22.4541 H         1 SUB1        0.050
     82 H272       -1.5305   18.8888   23.8931 H         1 SUB1        0.050
     83 H291      -11.8146   16.6940   30.1647 H         1 SUB1        0.185
     84 H301       -8.1840   18.5385   24.2016 H         1 SUB1        0.188
     85 H311       -7.9256   15.4174   18.8787 H         1 SUB1        0.181
     86 H312       -8.1846   15.0680   20.5553 H         1 SUB1        0.181
     87 H321       -5.5683   15.8653   22.0277 H         1 SUB1        0.188
     88 H331       -3.9492   16.4428   17.6359 H         1 SUB1        0.182
     89 H332       -3.5823   17.9224   18.4581 H         1 SUB1        0.182
     90 H341       -1.6257   20.7227   21.7877 H         1 SUB1        0.198
     91 H351        2.1352   20.0077   23.1412 H         1 SUB1        0.194
     92 H352        0.7381   19.2095   23.9115 H         1 SUB1        0.194
     93 H361        1.9470   21.2032   21.3397 H         1 SUB1        0.194
     94 H362        0.3842   21.4612   20.5188 H         1 SUB1        0.194
     95 H381      -11.9757   18.2662   28.3995 H         1 SUB1        0.210
@<TRIPOS>BOND
     1    2    1 1  
     2   29    2 am 
     3    2   37 2  
     4    3    4 1  
     5   11    3 1  
     6    3   29 1  
     7    4    5 1  
     8    5    6 1  
     9    5   10 1  
    10    6    7 1  
    11    7    8 1  
    12    9    8 1  
    13   10    9 1  
    14   12   11 1  
    15   11   38 1  
    16   13   12 1  
    17   13   14 1  
    18   17   13 1  
    19   14   15 1  
    20   14   16 1  
    21   30   17 am 
    22   17   39 2  
    23   18   19 1  
    24   22   18 1  
    25   18   30 1  
    26   19   20 1  
    27   20   21 1  
    28   21   31 am 
    29   21   40 2  
    30   32   22 am 
    31   22   41 2  
    32   23   24 1  
    33   25   23 1  
    34   23   32 1  
    35   24   33 am 
    36   24   42 2  
    37   26   25 1  
    38   27   26 1  
    39   34   27 1  
    40   28   36 1  
    41   28   35 1  
    42   34   28 1  
    43    1   43 1  
    44    1   44 1  
    45    1   45 1  
    46    3   46 1  
    47    4   47 1  
    48    4   48 1  
    49    5   49 1  
    50    6   50 1  
    51    6   51 1  
    52    7   52 1  
    53    7   53 1  
    54    8   54 1  
    55    8   55 1  
    56    9   56 1  
    57    9   57 1  
    58   10   58 1  
    59   10   59 1  
    60   11   60 1  
    61   12   61 1  
    62   12   62 1  
    63   13   63 1  
    64   14   64 1  
    65   15   65 1  
    66   15   66 1  
    67   15   67 1  
    68   16   68 1  
    69   16   69 1  
    70   16   70 1  
    71   18   71 1  
    72   19   72 1  
    73   19   73 1  
    74   20   74 1  
    75   20   75 1  
    76   23   76 1  
    77   25   77 1  
    78   25   78 1  
    79   26   79 1  
    80   26   80 1  
    81   27   81 1  
    82   27   82 1  
    83   29   83 1  
    84   30   84 1  
    85   31   85 1  
    86   31   86 1  
    87   32   87 1  
    88   33   88 1  
    89   33   89 1  
    90   34   90 1  
    91   35   91 1  
    92   35   92 1  
    93   36   93 1  
    94   36   94 1  
    95   38   95 1  
@<TRIPOS>SUBSTRUCTURE
     1 SUB1        1 GROUP

