### 
### Created by X-TOOL on Mon Oct 24 22:41:25 2005
### 

@<TRIPOS>MOLECULE
1g52_ligand
   34    35     1     0     0
SMALL
GAST_HUCK


@<TRIPOS>ATOM
      1 H31        -2.8119    3.4872   14.1440 H         1 SUB1        0.067
      2 H41        -3.5296    1.4883   15.4412 H         1 SUB1        0.065
      3 C01        -3.8210    3.4480   14.5380 C.ar      1 SUB1       -0.040
      4 C02        -4.2180    2.3090   15.2750 C.ar      1 SUB1       -0.030
      5 C03        -5.5380    2.2650   15.7920 C.ar      1 SUB1        0.112
      6 C04        -6.3820    3.3640   15.5370 C.ar      1 SUB1       -0.030
      7 C05        -5.9530    4.4790   14.7950 C.ar      1 SUB1       -0.040
      8 C06        -4.6780    4.5260   14.2970 C.ar      1 SUB1        0.050
      9 C07        -4.1990    5.7150   13.5000 C.2       1 SUB1        0.207
     10 O08        -4.9770    6.6230   13.3030 O.2       1 SUB1       -0.384
     11 N09        -2.8910    5.7600   13.0110 N.am      1 SUB1       -0.275
     12 C10        -2.2370    6.8270   12.2320 C.3       1 SUB1        0.064
     13 S11        -6.0000    0.7710   16.7370 S.o2      1 SUB1        0.068
     14 NP2        -5.5220   -0.5230   16.0450 N.am      1 SUB1       -0.261
     15 O13        -7.5050    1.0540   16.8380 O.2       1 SUB1       -0.150
     16 O14        -5.4260    1.0530   18.0770 O.2       1 SUB1       -0.150
     17 C15        -1.8690    8.0320   12.9060 C.ar      1 SUB1        0.011
     18 C16        -1.5470    7.9600   14.2860 C.ar      1 SUB1       -0.064
     19 C17        -1.1740    9.1070   15.0430 C.ar      1 SUB1       -0.074
     20 C18        -1.1290   10.3510   14.3760 C.ar      1 SUB1       -0.037
     21 C19        -1.4480   10.4720   12.9820 C.ar      1 SUB1        0.159
     22 C20        -1.8230    9.2930   12.2360 C.ar      1 SUB1        0.168
     23 F21        -1.3930   11.6720   12.3880 F         1 SUB1       -0.186
     24 F22        -2.1220    9.3960   10.9340 F         1 SUB1       -0.190
     25 H61        -7.3941    3.3496   15.9250 H         1 SUB1        0.065
     26 H71        -6.6335    5.3037   14.6167 H         1 SUB1        0.067
     27 H111       -2.3233    4.9629   13.2167 H         1 SUB1        0.187
     28 H121       -2.9251    7.1055   11.4203 H         1 SUB1        0.067
     29 H122       -1.3181    6.4004   11.8036 H         1 SUB1        0.067
     30 H141       -5.7135   -1.4193   16.4646 H         1 SUB1        0.163
     31 H181       -1.5864    6.9969   14.7820 H         1 SUB1        0.051
     32 H191       -0.9325    9.0279   16.0968 H         1 SUB1        0.056
     33 H201       -0.8461   11.2378   14.9316 H         1 SUB1        0.054
     34 H142       -5.0223   -0.4723   15.1803 H         1 SUB1        0.163
@<TRIPOS>BOND
     1    3    8 ar 
     2    3    4 ar 
     3    4    5 ar 
     4    5   13 1  
     5    5    6 ar 
     6    6    7 ar 
     7    7    8 ar 
     8    8    9 1  
     9    9   11 am 
    10    9   10 2  
    11   11   12 1  
    12   12   17 1  
    13   17   22 ar 
    14   17   18 ar 
    15   18   19 ar 
    16   19   20 ar 
    17   20   21 ar 
    18   21   22 ar 
    19   13   16 2  
    20   13   15 2  
    21   13   14 1  
    22   22   24 1  
    23   21   23 1  
    24    3    1 1  
    25    4    2 1  
    26    6   25 1  
    27    7   26 1  
    28   11   27 1  
    29   12   28 1  
    30   12   29 1  
    31   14   30 1  
    32   18   31 1  
    33   19   32 1  
    34   20   33 1  
    35   14   34 1  
@<TRIPOS>SUBSTRUCTURE
     1 SUB1        1 GROUP

