1g52_ligand
  -I-interpret- 

 34 35  0  0  0  0  0  0  0  0999 V2000
   -2.8119    3.4872   14.1440 H   0  0  0  0  0
   -3.5296    1.4883   15.4412 H   0  0  0  0  0
   -3.8210    3.4480   14.5380 C   0  0  0  0  0
   -4.2180    2.3090   15.2750 C   0  0  0  0  0
   -5.5380    2.2650   15.7920 C   0  0  0  0  0
   -6.3820    3.3640   15.5370 C   0  0  0  0  0
   -5.9530    4.4790   14.7950 C   0  0  0  0  0
   -4.6780    4.5260   14.2970 C   0  0  0  0  0
   -4.1990    5.7150   13.5000 C   0  0  0  0  0
   -4.9770    6.6230   13.3030 O   0  0  0  0  0
   -2.8910    5.7600   13.0110 N   0  0  0  0  0
   -2.2370    6.8270   12.2320 C   0  0  0  0  0
   -6.0000    0.7710   16.7370 S   0  0  0  0  0
   -5.5220   -0.5230   16.0450 N   0  0  0  0  0
   -7.5050    1.0540   16.8380 O   0  0  0  0  0
   -5.4260    1.0530   18.0770 O   0  0  0  0  0
   -1.8690    8.0320   12.9060 C   0  0  0  0  0
   -1.5470    7.9600   14.2860 C   0  0  0  0  0
   -1.1740    9.1070   15.0430 C   0  0  0  0  0
   -1.1290   10.3510   14.3760 C   0  0  0  0  0
   -1.4480   10.4720   12.9820 C   0  0  0  0  0
   -1.8230    9.2930   12.2360 C   0  0  0  0  0
   -1.3930   11.6720   12.3880 F   0  0  0  0  0
   -2.1220    9.3960   10.9340 F   0  0  0  0  0
   -7.3941    3.3496   15.9250 H   0  0  0  0  0
   -6.6335    5.3037   14.6167 H   0  0  0  0  0
   -2.3233    4.9629   13.2167 H   0  0  0  0  0
   -2.9251    7.1055   11.4203 H   0  0  0  0  0
   -1.3181    6.4004   11.8036 H   0  0  0  0  0
   -5.7135   -1.4193   16.4646 H   0  0  0  0  0
   -1.5864    6.9969   14.7820 H   0  0  0  0  0
   -0.9325    9.0279   16.0968 H   0  0  0  0  0
   -0.8461   11.2378   14.9316 H   0  0  0  0  0
   -5.0223   -0.4723   15.1803 H   0  0  0  0  0
  3  8  4  0  0  0
  3  4  4  0  0  0
  4  5  4  0  0  0
  5 13  1  0  0  0
  5  6  4  0  0  0
  6  7  4  0  0  0
  7  8  4  0  0  0
  8  9  1  0  0  0
  9 11  1  0  0  0
  9 10  2  0  0  0
 11 12  1  0  0  0
 12 17  1  0  0  0
 17 22  4  0  0  0
 17 18  4  0  0  0
 18 19  4  0  0  0
 19 20  4  0  0  0
 20 21  4  0  0  0
 21 22  4  0  0  0
 13 16  2  0  0  0
 13 15  2  0  0  0
 13 14  1  0  0  0
 22 24  1  0  0  0
 21 23  1  0  0  0
  3  1  1  0  0  0
  4  2  1  0  0  0
  6 25  1  0  0  0
  7 26  1  0  0  0
 11 27  1  0  0  0
 12 28  1  0  0  0
 12 29  1  0  0  0
 14 30  1  0  0  0
 18 31  1  0  0  0
 19 32  1  0  0  0
 20 33  1  0  0  0
 14 34  1  0  0  0
M  END
$$$$
