### 
### Created by X-TOOL on Mon Oct 24 22:19:39 2005
### 

@<TRIPOS>MOLECULE
1w4o_ligand
   32    33     1     0     0
SMALL
GAST_HUCK


@<TRIPOS>ATOM
      1 N1         36.5030   -2.0840   11.7110 N.am      1 SUB1       -0.159
      2 C2         35.2100   -2.1570   11.1150 C.2       1 SUB1        0.333
      3 O2         34.7380   -1.2530   10.5240 O.2       1 SUB1       -0.382
      4 N3         34.5840   -3.3970   11.3050 N.am      1 SUB1       -0.186
      5 C4         35.0790   -4.5240   11.9990 C.2       1 SUB1        0.182
      6 O4         34.3810   -5.5120   12.0540 O.2       1 SUB1       -0.412
      7 C5         36.4010   -4.3530   12.5790 C.2       1 SUB1        0.006
      8 C6         37.0560   -3.1880   12.4290 C.2       1 SUB1        0.059
      9 O5         40.7770    0.3360   13.9640 O.3       1 SUB1       -0.392
     10 C5         40.2230    0.5960   12.5170 C.3       1 SUB1        0.073
     11 C4         38.9370    0.3200   12.2850 C.3       1 SUB1        0.118
     12 O4         38.7340   -0.9590   11.6930 O.3       1 SUB1       -0.336
     13 C3         38.0330    1.1710   12.8790 C.3       1 SUB1        0.136
     14 O3         37.3130    2.4500   12.4140 O.3       1 SUB1       -0.314
     15 C2         36.8820   -0.1270   13.0650 C.3       1 SUB1        0.143
     16 O2         37.0630   -0.8150   14.5460 O.3       1 SUB1       -0.383
     17 C1         37.1810   -0.8620   11.5770 C.3       1 SUB1        0.206
     18 O3P        35.1240    3.1800   13.3130 O.co2     1 SUB1       -0.535
     19 P          36.6740    3.5710   13.1930 P.3       1 SUB1        0.206
     20 O1P        36.9060    4.8640   12.4680 O.co2     1 SUB1       -0.535
     21 O2P        37.2690    3.6140   14.5750 O.co2     1 SUB1       -0.535
     22 H41        33.6753   -3.4961   10.8995 H         1 SUB1        0.226
     23 H71        36.8611   -5.1685   13.1351 H         1 SUB1        0.026
     24 H81        38.0454   -3.0824   12.8717 H         1 SUB1        0.118
     25 H91        41.6969    0.5709   13.9966 H         1 SUB1        0.209
     26 H101       40.8200   -0.0132   11.8224 H         1 SUB1        0.058
     27 H102       40.3754    1.6622   12.2937 H         1 SUB1        0.058
     28 H111       38.8773    0.8442   11.3198 H         1 SUB1        0.065
     29 H131       38.4725    1.4663   13.8432 H         1 SUB1        0.070
     30 H151       35.8492    0.2511   13.0463 H         1 SUB1        0.068
     31 H161       36.4353   -1.5212   14.6447 H         1 SUB1        0.210
     32 H171       36.8512   -0.2993   10.6912 H         1 SUB1        0.100
@<TRIPOS>BOND
     1    1    2 am 
     2    1    8 1  
     3   17    1 1  
     4    2    3 2  
     5    2    4 am 
     6    4    5 am 
     7    5    6 2  
     8    7    5 1  
     9    8    7 2  
    10   10    9 1  
    11   11   10 1  
    12   12   11 1  
    13   11   13 1  
    14   12   17 1  
    15   13   14 1  
    16   13   15 1  
    17   14   19 1  
    18   15   16 1  
    19   15   17 1  
    20   19   18 2  
    21   19   20 2  
    22   19   21 2  
    23    4   22 1  
    24    7   23 1  
    25    8   24 1  
    26    9   25 1  
    27   10   26 1  
    28   10   27 1  
    29   11   28 1  
    30   13   29 1  
    31   15   30 1  
    32   16   31 1  
    33   17   32 1  
@<TRIPOS>SUBSTRUCTURE
     1 SUB1        1 GROUP

