1lpk_ligand
  -I-interpret- 

 57 60  0  0  0  0  0  0  0  0999 V2000
    3.8210    9.8750   26.1130 C   0  0  0  0  0
    4.9010    8.9900   25.9320 C   0  0  0  0  0
    5.3310    8.6980   24.6200 C   0  0  0  0  0
    4.6690    9.2650   23.4820 C   0  0  0  0  0
    3.5940   10.1670   23.6850 C   0  0  0  0  0
    3.1760   10.4780   25.0020 C   0  0  0  0  0
    6.3460    7.8870   24.1360 N   0  0  0  0  0
    6.3380    7.8910   22.7880 C   0  0  0  0  0
    5.3050    8.7460   22.3310 C   0  0  0  0  0
    7.2060    7.1050   24.9980 C   0  0  0  0  0
    8.5220    7.7500   25.2980 C   0  0  0  0  0
    9.1170    8.8700   24.6470 C   0  0  0  0  0
   10.3850    9.3330   25.0910 C   0  0  0  0  0
   11.0440    8.6820   26.1630 C   0  0  0  0  0
   10.4030    7.5830   26.7970 C   0  0  0  0  0
    9.1590    7.1300   26.3490 C   0  0  0  0  0
   10.9400    6.8680   27.9410 C   0  3  0  0  0
   12.2330    6.9330   28.2540 N   0  0  0  0  0
   10.0370    6.1370   28.6400 N   0  0  0  0  0
    7.1590    7.1010   21.9870 C   0  0  0  0  0
    6.7100    6.9240   20.7620 O   0  0  0  0  0
    7.4810    6.1230   19.8210 C   0  0  0  0  0
    7.4760    4.6240   20.1120 C   0  0  0  0  0
    6.7620    4.0100   21.1760 C   0  0  0  0  0
    6.8530    2.6030   21.3750 C   0  0  0  0  0
    7.6500    1.8160   20.5090 C   0  0  0  0  0
    8.3510    2.4330   19.4370 C   0  0  0  0  0
    8.2530    3.8270   19.2440 C   0  0  0  0  0
    9.2410    1.7160   18.5260 C   0  3  0  0  0
    9.1800    1.9340   17.2200 N   0  0  0  0  0
   10.1750    0.9050   19.0140 N   0  0  0  0  0
    8.1750    6.5920   22.3530 O   0  0  0  0  0
    3.4770   10.0992   27.1162 H   0  0  0  0  0
    5.3940    8.5404   26.7863 H   0  0  0  0  0
    3.0938   10.6170   22.8351 H   0  0  0  0  0
    2.3630   11.1770   25.1614 H   0  0  0  0  0
    5.0503    8.9616   21.2944 H   0  0  0  0  0
    6.6889    6.9396   25.9546 H   0  0  0  0  0
    7.4099    6.1404   24.5102 H   0  0  0  0  0
    8.6094    9.3615   23.8249 H   0  0  0  0  0
   10.8489   10.1858   24.6086 H   0  0  0  0  0
   12.0205    9.0163   26.4941 H   0  0  0  0  0
    8.6908    6.2813   26.8344 H   0  0  0  0  0
   12.5918    6.4173   29.0702 H   0  0  0  0  0
   12.8741    7.4989   27.6798 H   0  0  0  0  0
    9.0487    6.1253   28.3500 H   0  0  0  0  0
   10.3393    5.5934   29.4610 H   0  0  0  0  0
    7.0635    6.2677   18.8137 H   0  0  0  0  0
    8.5267    6.4633   19.8461 H   0  0  0  0  0
    6.1483    4.6124   21.8359 H   0  0  0  0  0
    6.3122    2.1345   22.1893 H   0  0  0  0  0
    7.7255    0.7456   20.6629 H   0  0  0  0  0
    8.7808    4.2917   18.4191 H   0  0  0  0  0
    9.8099    1.4256   16.5830 H   0  0  0  0  0
    8.5027    2.6118   16.8421 H   0  0  0  0  0
   10.2278    0.7314   20.0279 H   0  0  0  0  0
   10.8457    0.4504   18.3781 H   0  0  0  0  0
  1  2  4  0  0  0
  1  6  4  0  0  0
  2  3  4  0  0  0
  3  4  4  0  0  0
  3  7  1  0  0  0
  4  5  4  0  0  0
  4  9  1  0  0  0
  5  6  4  0  0  0
  7  8  1  0  0  0
  7 10  1  0  0  0
  8  9  2  0  0  0
  8 20  1  0  0  0
 10 11  1  0  0  0
 11 12  4  0  0  0
 11 16  4  0  0  0
 12 13  4  0  0  0
 13 14  4  0  0  0
 14 15  4  0  0  0
 15 16  4  0  0  0
 15 17  1  0  0  0
 17 18  1  0  0  0
 17 19  1  0  0  0
 20 21  1  0  0  0
 20 32  2  0  0  0
 21 22  1  0  0  0
 22 23  1  0  0  0
 23 24  4  0  0  0
 23 28  4  0  0  0
 24 25  4  0  0  0
 25 26  4  0  0  0
 26 27  4  0  0  0
 27 28  4  0  0  0
 27 29  1  0  0  0
 29 30  1  0  0  0
 29 31  1  0  0  0
  1 33  1  0  0  0
  2 34  1  0  0  0
  5 35  1  0  0  0
  6 36  1  0  0  0
  9 37  1  0  0  0
 10 38  1  0  0  0
 10 39  1  0  0  0
 12 40  1  0  0  0
 13 41  1  0  0  0
 14 42  1  0  0  0
 16 43  1  0  0  0
 18 44  1  0  0  0
 18 45  1  0  0  0
 19 46  1  0  0  0
 19 47  1  0  0  0
 22 48  1  0  0  0
 22 49  1  0  0  0
 24 50  1  0  0  0
 25 51  1  0  0  0
 26 52  1  0  0  0
 28 53  1  0  0  0
 30 54  1  0  0  0
 30 55  1  0  0  0
 31 56  1  0  0  0
 31 57  1  0  0  0
M  END
$$$$
