### 
### Created by X-TOOL on Tue Oct 25 01:36:52 2005
### 

@<TRIPOS>MOLECULE
1lpk_ligand
   57    60     1     0     0
SMALL
GAST_HUCK


@<TRIPOS>ATOM
      1 C1          3.8210    9.8750   26.1130 C.ar      1 SUB1       -0.074
      2 C2          4.9010    8.9900   25.9320 C.ar      1 SUB1       -0.040
      3 C3          5.3310    8.6980   24.6200 C.ar      1 SUB1        0.072
      4 C4          4.6690    9.2650   23.4820 C.ar      1 SUB1       -0.017
      5 C5          3.5940   10.1670   23.6850 C.ar      1 SUB1       -0.071
      6 C6          3.1760   10.4780   25.0020 C.ar      1 SUB1       -0.076
      7 N7          6.3460    7.8870   24.1360 N.pl3     1 SUB1       -0.240
      8 C8          6.3380    7.8910   22.7880 C.2       1 SUB1        0.149
      9 C9          5.3050    8.7460   22.3310 C.2       1 SUB1       -0.037
     10 C10         7.2060    7.1050   24.9980 C.3       1 SUB1        0.086
     11 C11         8.5220    7.7500   25.2980 C.ar      1 SUB1       -0.010
     12 C14         9.1170    8.8700   24.6470 C.ar      1 SUB1       -0.058
     13 C15        10.3850    9.3330   25.0910 C.ar      1 SUB1       -0.064
     14 C16        11.0440    8.6820   26.1630 C.ar      1 SUB1       -0.014
     15 C17        10.4030    7.5830   26.7970 C.ar      1 SUB1        0.179
     16 C18         9.1590    7.1300   26.3490 C.ar      1 SUB1       -0.003
     17 C19        10.9400    6.8680   27.9410 C.cat     1 SUB1        0.315
     18 N20        12.2330    6.9330   28.2540 N.pl3     1 SUB1       -0.200
     19 N21        10.0370    6.1370   28.6400 N.pl3     1 SUB1       -0.200
     20 C31         7.1590    7.1010   21.9870 C.2       1 SUB1        0.287
     21 O32         6.7100    6.9240   20.7620 O.3       1 SUB1       -0.263
     22 C33         7.4810    6.1230   19.8210 C.3       1 SUB1        0.110
     23 C34         7.4760    4.6240   20.1120 C.ar      1 SUB1       -0.009
     24 C37         6.7620    4.0100   21.1760 C.ar      1 SUB1       -0.058
     25 C38         6.8530    2.6030   21.3750 C.ar      1 SUB1       -0.064
     26 C39         7.6500    1.8160   20.5090 C.ar      1 SUB1       -0.014
     27 C40         8.3510    2.4330   19.4370 C.ar      1 SUB1        0.179
     28 C41         8.2530    3.8270   19.2440 C.ar      1 SUB1       -0.003
     29 C42         9.2410    1.7160   18.5260 C.cat     1 SUB1        0.315
     30 N43         9.1800    1.9340   17.2200 N.pl3     1 SUB1       -0.200
     31 N44        10.1750    0.9050   19.0140 N.pl3     1 SUB1       -0.200
     32 O49         8.1750    6.5920   22.3530 O.2       1 SUB1       -0.356
     33 H11         3.4770   10.0992   27.1162 H         1 SUB1        0.055
     34 H21         5.3940    8.5404   26.7863 H         1 SUB1        0.055
     35 H51         3.0938   10.6170   22.8351 H         1 SUB1        0.056
     36 H61         2.3630   11.1770   25.1614 H         1 SUB1        0.052
     37 H91         5.0503    8.9616   21.2944 H         1 SUB1        0.041
     38 H101        6.6889    6.9396   25.9546 H         1 SUB1        0.076
     39 H102        7.4099    6.1404   24.5102 H         1 SUB1        0.076
     40 H121        8.6094    9.3615   23.8249 H         1 SUB1        0.056
     41 H131       10.8489   10.1858   24.6086 H         1 SUB1        0.060
     42 H141       12.0205    9.0163   26.4941 H         1 SUB1        0.061
     43 H161        8.6908    6.2813   26.8344 H         1 SUB1        0.060
     44 H181       12.5918    6.4173   29.0702 H         1 SUB1        0.192
     45 H182       12.8741    7.4989   27.6798 H         1 SUB1        0.192
     46 H191        9.0487    6.1253   28.3500 H         1 SUB1        0.192
     47 H192       10.3393    5.5934   29.4610 H         1 SUB1        0.192
     48 H221        7.0635    6.2677   18.8137 H         1 SUB1        0.078
     49 H222        8.5267    6.4633   19.8461 H         1 SUB1        0.078
     50 H241        6.1483    4.6124   21.8359 H         1 SUB1        0.056
     51 H251        6.3122    2.1345   22.1893 H         1 SUB1        0.060
     52 H261        7.7255    0.7456   20.6629 H         1 SUB1        0.061
     53 H281        8.7808    4.2917   18.4191 H         1 SUB1        0.060
     54 H301        9.8099    1.4256   16.5830 H         1 SUB1        0.192
     55 H302        8.5027    2.6118   16.8421 H         1 SUB1        0.192
     56 H311       10.2278    0.7314   20.0279 H         1 SUB1        0.192
     57 H312       10.8457    0.4504   18.3781 H         1 SUB1        0.192
@<TRIPOS>BOND
     1    1    2 ar 
     2    1    6 ar 
     3    2    3 ar 
     4    3    4 ar 
     5    3    7 1  
     6    4    5 ar 
     7    4    9 1  
     8    5    6 ar 
     9    7    8 1  
    10    7   10 1  
    11    8    9 2  
    12    8   20 1  
    13   10   11 1  
    14   11   12 ar 
    15   11   16 ar 
    16   12   13 ar 
    17   13   14 ar 
    18   14   15 ar 
    19   15   16 ar 
    20   15   17 1  
    21   17   18 1  
    22   17   19 1  
    23   20   21 1  
    24   20   32 2  
    25   21   22 1  
    26   22   23 1  
    27   23   24 ar 
    28   23   28 ar 
    29   24   25 ar 
    30   25   26 ar 
    31   26   27 ar 
    32   27   28 ar 
    33   27   29 1  
    34   29   30 1  
    35   29   31 1  
    36    1   33 1  
    37    2   34 1  
    38    5   35 1  
    39    6   36 1  
    40    9   37 1  
    41   10   38 1  
    42   10   39 1  
    43   12   40 1  
    44   13   41 1  
    45   14   42 1  
    46   16   43 1  
    47   18   44 1  
    48   18   45 1  
    49   19   46 1  
    50   19   47 1  
    51   22   48 1  
    52   22   49 1  
    53   24   50 1  
    54   25   51 1  
    55   26   52 1  
    56   28   53 1  
    57   30   54 1  
    58   30   55 1  
    59   31   56 1  
    60   31   57 1  
@<TRIPOS>SUBSTRUCTURE
     1 SUB1        1 GROUP

