2i3h_ligand
  -I-interpret- 

 67 69  0  0  0  0  0  0  0  0999 V2000
   86.3520   60.5130   15.1240 N   0  3  0  0  0
   84.9340   60.6570   15.5620 C   0  0  0  0  0
   84.0950   61.2160   14.4240 C   0  0  0  0  0
   84.6320   61.6650   13.4160 O   0  0  0  0  0
   84.8430   61.5650   16.7920 C   0  0  0  0  0
   82.7760   61.1720   14.5860 N   0  0  0  0  0
   81.8450   61.6900   13.5840 C   0  0  0  0  0
   80.6830   62.4300   14.2470 C   0  0  0  0  0
   80.3250   62.1210   15.3800 O   0  0  0  0  0
   81.2600   60.5600   12.6980 C   0  0  0  0  0
   82.3490   59.9240   11.8400 C   0  0  0  0  0
   80.5400   59.5050   13.5440 C   0  0  0  0  0
   80.0790   63.3950   13.5540 N   0  0  0  0  0
   78.9390   64.1300   14.1230 C   0  0  0  0  0
   77.6760   63.2760   14.3100 C   0  0  0  0  0
   77.5380   62.2410   13.6600 O   0  0  0  0  0
   78.6820   65.2460   13.0940 C   0  0  0  0  0
   79.8810   65.2710   12.2150 C   0  0  0  0  0
   80.4220   63.8770   12.2040 C   0  0  0  0  0
   76.7750   63.7120   15.1910 N   0  0  0  0  0
   75.4590   63.0670   15.3420 C   0  0  0  0  0
   74.3170   64.0580   15.5870 C   0  0  0  0  0
   73.1950   63.9230   15.0910 O   0  5  0  0  0
   75.4960   62.0450   16.4760 C   0  0  0  0  0
   75.8580   62.6310   17.7910 C   0  0  0  0  0
   77.1080   62.9410   18.2330 C   0  0  0  0  0
   74.9610   62.9820   18.8460 C   0  0  0  0  0
   77.0480   63.4640   19.5030 N   0  0  0  0  0
   75.7390   63.5030   19.9020 C   0  0  0  0  0
   73.5730   62.9070   19.0100 C   0  0  0  0  0
   75.1800   63.9450   21.0960 C   0  0  0  0  0
   73.0180   63.3470   20.2000 C   0  0  0  0  0
   73.8230   63.8550   21.2270 C   0  0  0  0  0
   74.4410   65.0450   16.3060 O   0  0  0  0  0
   86.3937   59.9061   14.3052 H   0  0  0  0  0
   86.7285   61.4311   14.8878 H   0  0  0  0  0
   86.9003   60.1036   15.8804 H   0  0  0  0  0
   84.5477   59.6747   15.8339 H   0  0  0  0  0
   85.2097   62.5590   16.5361 H   0  0  0  0  0
   83.8046   61.6319   17.1166 H   0  0  0  0  0
   85.4501   61.1480   17.5955 H   0  0  0  0  0
   82.3995   60.7618   15.4407 H   0  0  0  0  0
   82.4175   62.3747   12.9583 H   0  0  0  0  0
   80.5224   61.0074   12.0318 H   0  0  0  0  0
   82.7912   60.6832   11.1949 H   0  0  0  0  0
   83.1184   59.5014   12.4862 H   0  0  0  0  0
   81.9128   59.1345   11.2280 H   0  0  0  0  0
   81.2445   59.0639   14.2491 H   0  0  0  0  0
   79.7230   59.9755   14.0910 H   0  0  0  0  0
   80.1421   58.7277   12.8917 H   0  0  0  0  0
   79.1694   64.4859   15.1272 H   0  0  0  0  0
   78.5287   66.2082   13.5827 H   0  0  0  0  0
   77.7744   65.0556   12.5211 H   0  0  0  0  0
   80.6241   65.9772   12.5854 H   0  0  0  0  0
   79.6225   65.5993   11.2083 H   0  0  0  0  0
   80.0016   63.2606   11.4094 H   0  0  0  0  0
   81.4904   63.8337   11.9923 H   0  0  0  0  0
   77.0034   64.5150   15.7771 H   0  0  0  0  0
   75.2548   62.5735   14.3918 H   0  0  0  0  0
   76.2576   61.3063   16.2261 H   0  0  0  0  0
   74.4950   61.6239   16.5698 H   0  0  0  0  0
   78.0248   62.7954   17.6618 H   0  0  0  0  0
   77.8472   63.7722   20.0568 H   0  0  0  0  0
   72.9408   62.5097   18.2159 H   0  0  0  0  0
   75.8005   64.3477   21.8966 H   0  0  0  0  0
   71.9381   63.2971   20.3394 H   0  0  0  0  0
   73.3554   64.1869   22.1540 H   0  0  0  0  0
  1  2  1  0  0  0
  2  3  1  0  0  0
  2  5  1  0  0  0
  3  4  2  0  0  0
  3  6  1  0  0  0
  6  7  1  0  0  0
  7  8  1  0  0  0
  7 10  1  0  0  0
  8  9  2  0  0  0
  8 13  1  0  0  0
 10 11  1  0  0  0
 10 12  1  0  0  0
 13 14  1  0  0  0
 13 19  1  0  0  0
 14 15  1  0  0  0
 14 17  1  0  0  0
 15 16  2  0  0  0
 15 20  1  0  0  0
 17 18  1  0  0  0
 18 19  1  0  0  0
 20 21  1  0  0  0
 21 22  1  0  0  0
 21 24  1  0  0  0
 22 23  1  0  0  0
 22 34  2  0  0  0
 24 25  1  0  0  0
 25 26  2  0  0  0
 25 27  1  0  0  0
 26 28  1  0  0  0
 27 29  4  0  0  0
 27 30  4  0  0  0
 28 29  1  0  0  0
 29 31  4  0  0  0
 30 32  4  0  0  0
 31 33  4  0  0  0
 32 33  4  0  0  0
  1 35  1  0  0  0
  1 36  1  0  0  0
  1 37  1  0  0  0
  2 38  1  0  0  0
  5 39  1  0  0  0
  5 40  1  0  0  0
  5 41  1  0  0  0
  6 42  1  0  0  0
  7 43  1  0  0  0
 10 44  1  0  0  0
 11 45  1  0  0  0
 11 46  1  0  0  0
 11 47  1  0  0  0
 12 48  1  0  0  0
 12 49  1  0  0  0
 12 50  1  0  0  0
 14 51  1  0  0  0
 17 52  1  0  0  0
 17 53  1  0  0  0
 18 54  1  0  0  0
 18 55  1  0  0  0
 19 56  1  0  0  0
 19 57  1  0  0  0
 20 58  1  0  0  0
 21 59  1  0  0  0
 24 60  1  0  0  0
 24 61  1  0  0  0
 26 62  1  0  0  0
 28 63  1  0  0  0
 30 64  1  0  0  0
 31 65  1  0  0  0
 32 66  1  0  0  0
 33 67  1  0  0  0
M  END
$$$$
