### 
### Created by X-TOOL on Sun Jun  3 11:43:59 2007
### 

@<TRIPOS>MOLECULE
2i3h_ligand
   67    69     1     0     0
SMALL
GAST_HUCK


@<TRIPOS>ATOM
      1 N          86.3520   60.5130   15.1240 N.4       1 SUB1        0.238
      2 CA         84.9340   60.6570   15.5620 C.3       1 SUB1        0.062
      3 C          84.0950   61.2160   14.4240 C.2       1 SUB1        0.226
      4 O          84.6320   61.6650   13.4160 O.2       1 SUB1       -0.391
      5 CB         84.8430   61.5650   16.7920 C.3       1 SUB1       -0.004
      6 N          82.7760   61.1720   14.5860 N.am      1 SUB1       -0.261
      7 CA         81.8450   61.6900   13.5840 C.3       1 SUB1        0.134
      8 C          80.6830   62.4300   14.2470 C.2       1 SUB1        0.207
      9 O          80.3250   62.1210   15.3800 O.2       1 SUB1       -0.394
     10 CB         81.2600   60.5600   12.6980 C.3       1 SUB1       -0.006
     11 CG1        82.3490   59.9240   11.8400 C.3       1 SUB1       -0.058
     12 CG2        80.5400   59.5050   13.5440 C.3       1 SUB1       -0.058
     13 N          80.0790   63.3950   13.5540 N.am      1 SUB1       -0.250
     14 CA         78.9390   64.1300   14.1230 C.3       1 SUB1        0.134
     15 C          77.6760   63.2760   14.3100 C.2       1 SUB1        0.204
     16 O          77.5380   62.2410   13.6600 O.2       1 SUB1       -0.394
     17 CB         78.6820   65.2460   13.0940 C.3       1 SUB1       -0.010
     18 CG         79.8810   65.2710   12.2150 C.3       1 SUB1       -0.028
     19 CD         80.4220   63.8770   12.2040 C.3       1 SUB1        0.037
     20 N          76.7750   63.7120   15.1910 N.am      1 SUB1       -0.263
     21 CA         75.4590   63.0670   15.3420 C.3       1 SUB1        0.158
     22 C          74.3170   64.0580   15.5870 C.2       1 SUB1        0.372
     23 O          73.1950   63.9230   15.0910 O.2       1 SUB1       -0.260
     24 CB         75.4960   62.0450   16.4760 C.3       1 SUB1        0.004
     25 CG         75.8580   62.6310   17.7910 C.2       1 SUB1       -0.042
     26 CD1        77.1080   62.9410   18.2330 C.2       1 SUB1        0.017
     27 CD2        74.9610   62.9820   18.8460 C.ar      1 SUB1       -0.021
     28 NE1        77.0480   63.4640   19.5030 N.pl3     1 SUB1       -0.289
     29 CE2        75.7390   63.5030   19.9020 C.ar      1 SUB1        0.060
     30 CE3        73.5730   62.9070   19.0100 C.ar      1 SUB1       -0.075
     31 CZ2        75.1800   63.9450   21.0960 C.ar      1 SUB1       -0.044
     32 CZ3        73.0180   63.3470   20.2000 C.ar      1 SUB1       -0.079
     33 CH2        73.8230   63.8550   21.2270 C.ar      1 SUB1       -0.077
     34 OXT        74.4410   65.0450   16.3060 O.2       1 SUB1       -0.260
     35 H          86.3937   59.9061   14.3052 H         1 SUB1        0.201
     36 H          86.7285   61.4311   14.8878 H         1 SUB1        0.201
     37 H          86.9003   60.1036   15.8804 H         1 SUB1        0.201
     38 H          84.5477   59.6747   15.8339 H         1 SUB1        0.109
     39 H          85.2097   62.5590   16.5361 H         1 SUB1        0.031
     40 H          83.8046   61.6319   17.1166 H         1 SUB1        0.031
     41 H          85.4501   61.1480   17.5955 H         1 SUB1        0.031
     42 H          82.3995   60.7618   15.4407 H         1 SUB1        0.189
     43 H          82.4175   62.3747   12.9583 H         1 SUB1        0.080
     44 H          80.5224   61.0074   12.0318 H         1 SUB1        0.034
     45 H          82.7912   60.6832   11.1949 H         1 SUB1        0.023
     46 H          83.1184   59.5014   12.4862 H         1 SUB1        0.023
     47 H          81.9128   59.1345   11.2280 H         1 SUB1        0.023
     48 H          81.2445   59.0639   14.2491 H         1 SUB1        0.023
     49 H          79.7230   59.9755   14.0910 H         1 SUB1        0.023
     50 H          80.1421   58.7277   12.8917 H         1 SUB1        0.023
     51 H          79.1694   64.4859   15.1272 H         1 SUB1        0.080
     52 H          78.5287   66.2082   13.5827 H         1 SUB1        0.031
     53 H          77.7744   65.0556   12.5211 H         1 SUB1        0.031
     54 H          80.6241   65.9772   12.5854 H         1 SUB1        0.029
     55 H          79.6225   65.5993   11.2083 H         1 SUB1        0.029
     56 H          80.0016   63.2606   11.4094 H         1 SUB1        0.052
     57 H          81.4904   63.8337   11.9923 H         1 SUB1        0.052
     58 H          77.0034   64.5150   15.7771 H         1 SUB1        0.188
     59 H          75.2548   62.5735   14.3918 H         1 SUB1        0.079
     60 H          76.2576   61.3063   16.2261 H         1 SUB1        0.039
     61 H          74.4950   61.6239   16.5698 H         1 SUB1        0.039
     62 H          78.0248   62.7954   17.6618 H         1 SUB1        0.079
     63 H          77.8472   63.7722   20.0568 H         1 SUB1        0.222
     64 H          72.9408   62.5097   18.2159 H         1 SUB1        0.054
     65 H          75.8005   64.3477   21.8966 H         1 SUB1        0.054
     66 H          71.9381   63.2971   20.3394 H         1 SUB1        0.051
     67 H          73.3554   64.1869   22.1540 H         1 SUB1        0.053
@<TRIPOS>BOND
     1    1    2 1  
     2    2    3 1  
     3    2    5 1  
     4    3    4 2  
     5    3    6 am 
     6    6    7 1  
     7    7    8 1  
     8    7   10 1  
     9    8    9 2  
    10    8   13 am 
    11   10   11 1  
    12   10   12 1  
    13   13   14 1  
    14   13   19 1  
    15   14   15 1  
    16   14   17 1  
    17   15   16 2  
    18   15   20 am 
    19   17   18 1  
    20   18   19 1  
    21   20   21 1  
    22   21   22 1  
    23   21   24 1  
    24   22   23 2  
    25   22   34 2  
    26   24   25 1  
    27   25   26 2  
    28   25   27 1  
    29   26   28 1  
    30   27   29 ar 
    31   27   30 ar 
    32   28   29 1  
    33   29   31 ar 
    34   30   32 ar 
    35   31   33 ar 
    36   32   33 ar 
    37    1   35 1  
    38    1   36 1  
    39    1   37 1  
    40    2   38 1  
    41    5   39 1  
    42    5   40 1  
    43    5   41 1  
    44    6   42 1  
    45    7   43 1  
    46   10   44 1  
    47   11   45 1  
    48   11   46 1  
    49   11   47 1  
    50   12   48 1  
    51   12   49 1  
    52   12   50 1  
    53   14   51 1  
    54   17   52 1  
    55   17   53 1  
    56   18   54 1  
    57   18   55 1  
    58   19   56 1  
    59   19   57 1  
    60   20   58 1  
    61   21   59 1  
    62   24   60 1  
    63   24   61 1  
    64   26   62 1  
    65   28   63 1  
    66   30   64 1  
    67   31   65 1  
    68   32   66 1  
    69   33   67 1  
@<TRIPOS>SUBSTRUCTURE
     1 SUB1        1 GROUP

