1i80_ligand
  -I-interpret- 

 15 16  0  0  0  0  0  0  0  0999 V2000
   29.4842   31.8790    7.7849 H   0  0  0  0  0
   31.3910   33.0405    9.2303 H   0  0  0  0  0
   30.3179   34.9378   10.6372 H   0  0  0  0  0
   25.3800   35.3742    9.8905 H   0  0  0  0  0
   24.9510   33.6762    8.2959 H   0  0  0  0  0
   29.3560   32.7100    8.4770 C   0  0  0  0  0
   30.3390   33.3220    9.2350 C   0  0  0  0  0
   29.8090   34.3230    9.9860 N   0  0  0  0  0
   28.4620   34.3570    9.7090 C   0  0  0  0  0
   27.4140   35.1910   10.1920 C   0  0  0  0  0
   27.4520   36.1240   11.0190 O   0  0  0  0  0
   26.1780   34.8430    9.6060 N   0  0  0  0  0
   25.9590   33.8380    8.6750 C   0  0  0  0  0
   26.9530   33.0640    8.2320 N   0  0  0  0  0
   28.1720   33.3720    8.7790 C   0  0  0  0  0
  6  1  1  0  0  0
  7  2  1  0  0  0
  8  3  1  0  0  0
 12  4  1  0  0  0
 13  5  1  0  0  0
 15  6  1  0  0  0
  6  7  2  0  0  0
  8  7  1  0  0  0
  9  8  1  0  0  0
  9 15  2  0  0  0
 10  9  1  0  0  0
 12 10  1  0  0  0
 10 11  2  0  0  0
 12 13  1  0  0  0
 13 14  2  0  0  0
 14 15  1  0  0  0
M  END
$$$$
