### 
### Created by X-TOOL on Mon Oct 24 23:56:46 2005
### 

@<TRIPOS>MOLECULE
1i80_ligand
   15    16     1     0     0
SMALL
GAST_HUCK


@<TRIPOS>ATOM
      1 H61        29.4842   31.8790    7.7849 H         1 SUB1        0.029
      2 H71        31.3910   33.0405    9.2303 H         1 SUB1        0.089
      3 H81        30.3179   34.9378   10.6372 H         1 SUB1        0.232
      4 H121       25.3800   35.3742    9.8905 H         1 SUB1        0.252
      5 H131       24.9510   33.6762    8.2959 H         1 SUB1        0.144
      6 C9         29.3560   32.7100    8.4770 C.2       1 SUB1       -0.062
      7 C8         30.3390   33.3220    9.2350 C.2       1 SUB1        0.020
      8 N7         29.8090   34.3230    9.9860 N.pl3     1 SUB1       -0.282
      9 C5         28.4620   34.3570    9.7090 C.2       1 SUB1        0.138
     10 C6         27.4140   35.1910   10.1920 C.2       1 SUB1        0.242
     11 O6         27.4520   36.1240   11.0190 O.2       1 SUB1       -0.401
     12 N1         26.1780   34.8430    9.6060 N.am      1 SUB1       -0.206
     13 C2         25.9590   33.8380    8.6750 C.2       1 SUB1        0.116
     14 N3         26.9530   33.0640    8.2320 N.2       1 SUB1       -0.319
     15 C4         28.1720   33.3720    8.7790 C.2       1 SUB1        0.008
@<TRIPOS>BOND
     1    6    1 1  
     2    7    2 1  
     3    8    3 1  
     4   12    4 1  
     5   13    5 1  
     6   15    6 1  
     7    6    7 2  
     8    8    7 1  
     9    9    8 1  
    10    9   15 2  
    11   10    9 1  
    12   12   10 am 
    13   10   11 2  
    14   12   13 am 
    15   13   14 2  
    16   14   15 1  
@<TRIPOS>SUBSTRUCTURE
     1 SUB1        1 GROUP

