### 
### Created by X-TOOL on Mon Oct 24 22:51:02 2005
### 

@<TRIPOS>MOLECULE
1vwn_ligand
   92    95     1     0     0
SMALL
GAST_HUCK


@<TRIPOS>ATOM
      1 C           7.9710   -0.5070  -19.9300 C.2       1 SUB1        0.172
      2 O           7.4420   -0.4090  -18.8350 O.2       1 SUB1       -0.383
      3 N           9.2120   -0.8750  -20.0760 N.am      1 SUB1       -0.266
      4 CA          9.9750   -1.1680  -18.8420 C.3       1 SUB1        0.141
      5 C          10.1370    0.2380  -18.2380 C.2       1 SUB1        0.205
      6 O          10.0500    1.2110  -18.9660 O.2       1 SUB1       -0.394
      7 CB         11.3270   -1.8060  -19.2040 C.3       1 SUB1        0.045
      8 SG         12.3510   -2.1550  -17.7640 S.3       1 SUB1       -0.088
      9 H31         9.6300   -0.9560  -20.9810 H         1 SUB1        0.189
     10 N          10.3690    0.3400  -16.9620 N.am      1 SUB1       -0.262
     11 CA         10.5210    1.6960  -16.3310 C.3       1 SUB1        0.142
     12 C          11.8950    1.7910  -15.6770 C.2       1 SUB1        0.208
     13 O          12.3680    0.8010  -15.1530 O.2       1 SUB1       -0.394
     14 CB          9.3540    1.8420  -15.3000 C.3       1 SUB1        0.043
     15 CG          9.4010    3.0530  -14.3570 C.2       1 SUB1        0.056
     16 ND1        10.2340    3.1080  -13.3440 N.pl3     1 SUB1       -0.262
     17 CD2         8.6150    4.1910  -14.3950 C.2       1 SUB1       -0.028
     18 CE1         9.9580    4.2550  -12.7760 C.2       1 SUB1        0.087
     19 NE2         9.0150    4.8920  -13.3820 N.2       1 SUB1       -0.344
     20 H161       10.9390    2.4120  -13.0620 H         1 SUB1        0.239
     21 H101       10.4460   -0.4840  -16.4010 H         1 SUB1        0.189
     22 N          12.5000    2.9630  -15.7030 N.am      1 SUB1       -0.250
     23 CA         13.8300    3.1840  -15.1160 C.3       1 SUB1        0.134
     24 C          14.0420    2.6110  -13.7270 C.2       1 SUB1        0.204
     25 O          15.1520    2.2420  -13.3880 O.2       1 SUB1       -0.394
     26 CB         14.0140    4.6970  -15.1860 C.3       1 SUB1       -0.010
     27 CG         12.6060    5.2790  -15.4320 C.3       1 SUB1       -0.028
     28 CD         11.9570    4.2270  -16.3000 C.3       1 SUB1        0.037
     29 N          13.0070    2.5560  -12.9340 N.am      1 SUB1       -0.264
     30 CA         13.1760    2.0000  -11.5650 C.3       1 SUB1        0.133
     31 C          13.7740    0.6110  -11.6740 C.2       1 SUB1        0.204
     32 O          14.4860    0.1510  -10.7960 O.2       1 SUB1       -0.394
     33 CB         11.8090    1.9250  -10.8430 C.3       1 SUB1        0.004
     34 CG         12.0330    1.3320   -9.4220 C.3       1 SUB1        0.041
     35 CD         10.8900    1.6520   -8.4700 C.2       1 SUB1        0.174
     36 OE1        10.3140    2.7010   -8.6170 O.2       1 SUB1       -0.397
     37 NE2        10.5010    0.8640   -7.4990 N.am      1 SUB1       -0.301
     38 H371        9.7410    1.1360   -6.9090 H         1 SUB1        0.181
     39 H372       10.9640   -0.0090   -7.3480 H         1 SUB1        0.181
     40 H291       12.1140    2.8830  -13.2420 H         1 SUB1        0.188
     41 N          13.4420    0.0160  -12.7740 N.am      1 SUB1       -0.262
     42 CA         13.9030   -1.3570  -13.0840 C.3       1 SUB1        0.141
     43 C          14.9990   -1.4240  -14.1850 C.2       1 SUB1        0.207
     44 O          15.9970   -2.1000  -13.9900 O.2       1 SUB1       -0.394
     45 CB         12.6040   -2.1590  -13.4580 C.3       1 SUB1        0.021
     46 CG         11.5390   -1.8830  -12.3470 C.ar      1 SUB1       -0.039
     47 CD1        11.6550   -2.4140  -11.0640 C.ar      1 SUB1       -0.060
     48 CD2        10.4540   -1.0620  -12.6120 C.ar      1 SUB1       -0.060
     49 CE1        10.7060   -2.1310  -10.0840 C.ar      1 SUB1       -0.069
     50 CE2         9.5100   -0.7790  -11.6360 C.ar      1 SUB1       -0.069
     51 CZ          9.6280   -1.3030  -10.3700 C.ar      1 SUB1       -0.069
     52 H411       12.8600    0.4950  -13.4310 H         1 SUB1        0.189
     53 N          14.8500   -0.7510  -15.2910 N.am      1 SUB1       -0.267
     54 CA         15.9110   -0.8310  -16.3590 C.3       1 SUB1        0.091
     55 C          16.7200    0.4470  -16.6850 C.2       1 SUB1        0.054
     56 O          16.2250    1.5540  -16.7610 O.co2     1 SUB1       -0.564
     57 CB         15.2210   -1.3320  -17.6340 C.3       1 SUB1        0.038
     58 SG         13.6080   -0.5890  -17.9830 S.3       1 SUB1       -0.087
     59 H531       14.0370   -0.1850  -15.4300 H         1 SUB1        0.190
     60 O1         17.9593    0.3336  -16.8824 O.co2     1 SUB1       -0.564
     61 H41         9.4194   -1.8334  -18.1648 H         1 SUB1        0.081
     62 H71        11.8741   -1.1166  -19.8639 H         1 SUB1        0.043
     63 H72        11.1375   -2.7499  -19.7361 H         1 SUB1        0.043
     64 H111       10.4343    2.4817  -17.0959 H         1 SUB1        0.082
     65 H141        9.3479    0.9362  -14.6759 H         1 SUB1        0.049
     66 H142        8.4146    1.9014  -15.8691 H         1 SUB1        0.049
     67 H171        7.8362    4.4408  -15.1140 H         1 SUB1        0.032
     68 H181       10.4684    4.6294  -11.8899 H         1 SUB1        0.115
     69 H231       14.5777    2.7067  -15.7665 H         1 SUB1        0.080
     70 H261       14.6887    4.9633  -16.0130 H         1 SUB1        0.031
     71 H262       14.4261    5.0773  -14.2397 H         1 SUB1        0.031
     72 H271       12.6622    6.2450  -15.9552 H         1 SUB1        0.029
     73 H272       12.0586    5.4056  -14.4863 H         1 SUB1        0.029
     74 H281       12.2574    4.3345  -17.3527 H         1 SUB1        0.052
     75 H282       10.8602    4.2667  -16.2258 H         1 SUB1        0.052
     76 H301       13.8538    2.6474  -10.9893 H         1 SUB1        0.080
     77 H331       11.1243    1.2783  -11.4112 H         1 SUB1        0.034
     78 H332       11.3771    2.9333  -10.7605 H         1 SUB1        0.034
     79 H341       12.9634    1.7485   -9.0086 H         1 SUB1        0.050
     80 H342       12.1263    0.2392   -9.5065 H         1 SUB1        0.050
     81 H421       14.3363   -1.7935  -12.1720 H         1 SUB1        0.082
     82 H451       12.8279   -3.2350  -13.5033 H         1 SUB1        0.047
     83 H452       12.2236   -1.8223  -14.4337 H         1 SUB1        0.047
     84 H471       12.4951   -3.0561  -10.8251 H         1 SUB1        0.056
     85 H481       10.3411   -0.6329  -13.6010 H         1 SUB1        0.056
     86 H491       10.8094   -2.5591   -9.0935 H         1 SUB1        0.060
     87 H501        8.6694   -0.1373  -11.8739 H         1 SUB1        0.060
     88 H511        8.8920   -1.0737   -9.6079 H         1 SUB1        0.056
     89 H541       16.6399   -1.5866  -16.0307 H         1 SUB1        0.079
     90 H571       15.0813   -2.4190  -17.5402 H         1 SUB1        0.044
     91 H572       15.8844   -1.1197  -18.4854 H         1 SUB1        0.044
     92 H11         7.3839   -0.2783  -20.8183 H         1 SUB1        0.154
@<TRIPOS>BOND
     1    1    2 2  
     2    5    4 1  
     3    4    7 1  
     4    4    3 1  
     5    3    9 1  
     6    7    8 1  
     7    5    6 2  
     8   12   11 1  
     9   11   14 1  
    10   11   10 1  
    11   10   21 1  
    12   14   15 1  
    13   15   17 2  
    14   15   16 1  
    15   16   20 1  
    16   16   18 1  
    17   18   19 2  
    18   17   19 1  
    19   12   13 2  
    20   23   22 1  
    21   23   26 1  
    22   24   23 1  
    23   24   25 2  
    24   26   27 1  
    25   27   28 1  
    26   22   28 1  
    27   31   30 1  
    28   30   33 1  
    29   30   29 1  
    30   29   40 1  
    31   33   34 1  
    32   34   35 1  
    33   35   36 2  
    34   35   37 am 
    35   37   38 1  
    36   37   39 1  
    37   31   32 2  
    38   43   42 1  
    39   42   45 1  
    40   42   41 1  
    41   41   52 1  
    42   45   46 1  
    43   46   48 ar 
    44   46   47 ar 
    45   47   49 ar 
    46   49   51 ar 
    47   50   51 ar 
    48   48   50 ar 
    49   43   44 2  
    50   54   55 1  
    51   54   57 1  
    52   53   54 1  
    53   53   59 1  
    54   57   58 1  
    55   55   56 2  
    56    3    1 am 
    57   10    5 am 
    58   22   12 am 
    59   29   24 am 
    60   41   31 am 
    61   43   53 am 
    62    8   58 1  
    63   55   60 2  
    64    4   61 1  
    65    7   62 1  
    66    7   63 1  
    67   11   64 1  
    68   14   65 1  
    69   14   66 1  
    70   17   67 1  
    71   18   68 1  
    72   23   69 1  
    73   26   70 1  
    74   26   71 1  
    75   27   72 1  
    76   27   73 1  
    77   28   74 1  
    78   28   75 1  
    79   30   76 1  
    80   33   77 1  
    81   33   78 1  
    82   34   79 1  
    83   34   80 1  
    84   42   81 1  
    85   45   82 1  
    86   45   83 1  
    87   47   84 1  
    88   48   85 1  
    89   49   86 1  
    90   50   87 1  
    91   51   88 1  
    92   54   89 1  
    93   57   90 1  
    94   57   91 1  
    95    1   92 1  
@<TRIPOS>SUBSTRUCTURE
     1 SUB1        1 GROUP

