1vwn_ligand
  -I-interpret- 

 92 95  0  0  0  0  0  0  0  0999 V2000
    7.9710   -0.5070  -19.9300 C   0  0  0  0  0
    7.4420   -0.4090  -18.8350 O   0  0  0  0  0
    9.2120   -0.8750  -20.0760 N   0  0  0  0  0
    9.9750   -1.1680  -18.8420 C   0  0  0  0  0
   10.1370    0.2380  -18.2380 C   0  0  0  0  0
   10.0500    1.2110  -18.9660 O   0  0  0  0  0
   11.3270   -1.8060  -19.2040 C   0  0  0  0  0
   12.3510   -2.1550  -17.7640 S   0  0  0  0  0
    9.6300   -0.9560  -20.9810 H   0  0  0  0  0
   10.3690    0.3400  -16.9620 N   0  0  0  0  0
   10.5210    1.6960  -16.3310 C   0  0  0  0  0
   11.8950    1.7910  -15.6770 C   0  0  0  0  0
   12.3680    0.8010  -15.1530 O   0  0  0  0  0
    9.3540    1.8420  -15.3000 C   0  0  0  0  0
    9.4010    3.0530  -14.3570 C   0  0  0  0  0
   10.2340    3.1080  -13.3440 N   0  0  0  0  0
    8.6150    4.1910  -14.3950 C   0  0  0  0  0
    9.9580    4.2550  -12.7760 C   0  0  0  0  0
    9.0150    4.8920  -13.3820 N   0  0  0  0  0
   10.9390    2.4120  -13.0620 H   0  0  0  0  0
   10.4460   -0.4840  -16.4010 H   0  0  0  0  0
   12.5000    2.9630  -15.7030 N   0  0  0  0  0
   13.8300    3.1840  -15.1160 C   0  0  0  0  0
   14.0420    2.6110  -13.7270 C   0  0  0  0  0
   15.1520    2.2420  -13.3880 O   0  0  0  0  0
   14.0140    4.6970  -15.1860 C   0  0  0  0  0
   12.6060    5.2790  -15.4320 C   0  0  0  0  0
   11.9570    4.2270  -16.3000 C   0  0  0  0  0
   13.0070    2.5560  -12.9340 N   0  0  0  0  0
   13.1760    2.0000  -11.5650 C   0  0  0  0  0
   13.7740    0.6110  -11.6740 C   0  0  0  0  0
   14.4860    0.1510  -10.7960 O   0  0  0  0  0
   11.8090    1.9250  -10.8430 C   0  0  0  0  0
   12.0330    1.3320   -9.4220 C   0  0  0  0  0
   10.8900    1.6520   -8.4700 C   0  0  0  0  0
   10.3140    2.7010   -8.6170 O   0  0  0  0  0
   10.5010    0.8640   -7.4990 N   0  0  0  0  0
    9.7410    1.1360   -6.9090 H   0  0  0  0  0
   10.9640   -0.0090   -7.3480 H   0  0  0  0  0
   12.1140    2.8830  -13.2420 H   0  0  0  0  0
   13.4420    0.0160  -12.7740 N   0  0  0  0  0
   13.9030   -1.3570  -13.0840 C   0  0  0  0  0
   14.9990   -1.4240  -14.1850 C   0  0  0  0  0
   15.9970   -2.1000  -13.9900 O   0  0  0  0  0
   12.6040   -2.1590  -13.4580 C   0  0  0  0  0
   11.5390   -1.8830  -12.3470 C   0  0  0  0  0
   11.6550   -2.4140  -11.0640 C   0  0  0  0  0
   10.4540   -1.0620  -12.6120 C   0  0  0  0  0
   10.7060   -2.1310  -10.0840 C   0  0  0  0  0
    9.5100   -0.7790  -11.6360 C   0  0  0  0  0
    9.6280   -1.3030  -10.3700 C   0  0  0  0  0
   12.8600    0.4950  -13.4310 H   0  0  0  0  0
   14.8500   -0.7510  -15.2910 N   0  0  0  0  0
   15.9110   -0.8310  -16.3590 C   0  0  0  0  0
   16.7200    0.4470  -16.6850 C   0  0  0  0  0
   16.2250    1.5540  -16.7610 O   0  0  0  0  0
   15.2210   -1.3320  -17.6340 C   0  0  0  0  0
   13.6080   -0.5890  -17.9830 S   0  0  0  0  0
   14.0370   -0.1850  -15.4300 H   0  0  0  0  0
   17.9593    0.3336  -16.8824 O   0  5  0  0  0
    9.4194   -1.8334  -18.1648 H   0  0  0  0  0
   11.8741   -1.1166  -19.8639 H   0  0  0  0  0
   11.1375   -2.7499  -19.7361 H   0  0  0  0  0
   10.4343    2.4817  -17.0959 H   0  0  0  0  0
    9.3479    0.9362  -14.6759 H   0  0  0  0  0
    8.4146    1.9014  -15.8691 H   0  0  0  0  0
    7.8362    4.4408  -15.1140 H   0  0  0  0  0
   10.4684    4.6294  -11.8899 H   0  0  0  0  0
   14.5777    2.7067  -15.7665 H   0  0  0  0  0
   14.6887    4.9633  -16.0130 H   0  0  0  0  0
   14.4261    5.0773  -14.2397 H   0  0  0  0  0
   12.6622    6.2450  -15.9552 H   0  0  0  0  0
   12.0586    5.4056  -14.4863 H   0  0  0  0  0
   12.2574    4.3345  -17.3527 H   0  0  0  0  0
   10.8602    4.2667  -16.2258 H   0  0  0  0  0
   13.8538    2.6474  -10.9893 H   0  0  0  0  0
   11.1243    1.2783  -11.4112 H   0  0  0  0  0
   11.3771    2.9333  -10.7605 H   0  0  0  0  0
   12.9634    1.7485   -9.0086 H   0  0  0  0  0
   12.1263    0.2392   -9.5065 H   0  0  0  0  0
   14.3363   -1.7935  -12.1720 H   0  0  0  0  0
   12.8279   -3.2350  -13.5033 H   0  0  0  0  0
   12.2236   -1.8223  -14.4337 H   0  0  0  0  0
   12.4951   -3.0561  -10.8251 H   0  0  0  0  0
   10.3411   -0.6329  -13.6010 H   0  0  0  0  0
   10.8094   -2.5591   -9.0935 H   0  0  0  0  0
    8.6694   -0.1373  -11.8739 H   0  0  0  0  0
    8.8920   -1.0737   -9.6079 H   0  0  0  0  0
   16.6399   -1.5866  -16.0307 H   0  0  0  0  0
   15.0813   -2.4190  -17.5402 H   0  0  0  0  0
   15.8844   -1.1197  -18.4854 H   0  0  0  0  0
    7.3839   -0.2783  -20.8183 H   0  0  0  0  0
  1  2  2  0  0  0
  5  4  1  0  0  0
  4  7  1  0  0  0
  4  3  1  0  0  0
  3  9  1  0  0  0
  7  8  1  0  0  0
  5  6  2  0  0  0
 12 11  1  0  0  0
 11 14  1  0  0  0
 11 10  1  0  0  0
 10 21  1  0  0  0
 14 15  1  0  0  0
 15 17  2  0  0  0
 15 16  1  0  0  0
 16 20  1  0  0  0
 16 18  1  0  0  0
 18 19  2  0  0  0
 17 19  1  0  0  0
 12 13  2  0  0  0
 23 22  1  0  0  0
 23 26  1  0  0  0
 24 23  1  0  0  0
 24 25  2  0  0  0
 26 27  1  0  0  0
 27 28  1  0  0  0
 22 28  1  0  0  0
 31 30  1  0  0  0
 30 33  1  0  0  0
 30 29  1  0  0  0
 29 40  1  0  0  0
 33 34  1  0  0  0
 34 35  1  0  0  0
 35 36  2  0  0  0
 35 37  1  0  0  0
 37 38  1  0  0  0
 37 39  1  0  0  0
 31 32  2  0  0  0
 43 42  1  0  0  0
 42 45  1  0  0  0
 42 41  1  0  0  0
 41 52  1  0  0  0
 45 46  1  0  0  0
 46 48  4  0  0  0
 46 47  4  0  0  0
 47 49  4  0  0  0
 49 51  4  0  0  0
 50 51  4  0  0  0
 48 50  4  0  0  0
 43 44  2  0  0  0
 54 55  1  0  0  0
 54 57  1  0  0  0
 53 54  1  0  0  0
 53 59  1  0  0  0
 57 58  1  0  0  0
 55 56  2  0  0  0
  3  1  1  0  0  0
 10  5  1  0  0  0
 22 12  1  0  0  0
 29 24  1  0  0  0
 41 31  1  0  0  0
 43 53  1  0  0  0
  8 58  1  0  0  0
 55 60  1  0  0  0
  4 61  1  0  0  0
  7 62  1  0  0  0
  7 63  1  0  0  0
 11 64  1  0  0  0
 14 65  1  0  0  0
 14 66  1  0  0  0
 17 67  1  0  0  0
 18 68  1  0  0  0
 23 69  1  0  0  0
 26 70  1  0  0  0
 26 71  1  0  0  0
 27 72  1  0  0  0
 27 73  1  0  0  0
 28 74  1  0  0  0
 28 75  1  0  0  0
 30 76  1  0  0  0
 33 77  1  0  0  0
 33 78  1  0  0  0
 34 79  1  0  0  0
 34 80  1  0  0  0
 42 81  1  0  0  0
 45 82  1  0  0  0
 45 83  1  0  0  0
 47 84  1  0  0  0
 48 85  1  0  0  0
 49 86  1  0  0  0
 50 87  1  0  0  0
 51 88  1  0  0  0
 54 89  1  0  0  0
 57 90  1  0  0  0
 57 91  1  0  0  0
  1 92  1  0  0  0
M  END
$$$$
