### 
### Created by X-TOOL on Mon Oct 24 22:43:44 2005
### 

@<TRIPOS>MOLECULE
1hi5_ligand
   39    41     1     0     0
SMALL
GAST_HUCK


@<TRIPOS>ATOM
      1 PB         14.5960   14.3740    9.6300 P.3       1 SUB1        0.158
      2 O1B        14.6160   15.7120   10.3480 O.co2     1 SUB1       -0.616
      3 O2B        15.9180   13.6710    9.8600 O.co2     1 SUB1       -0.616
      4 O3B        13.4440   13.5430   10.1630 O.co2     1 SUB1       -0.616
      5 PA         14.0640   13.7200    6.9350 P.3       1 SUB1        0.372
      6 O1A        14.3700   12.2490    7.1720 O.co2     1 SUB1       -0.457
      7 O2A        14.7240   14.2520    5.6760 O.co2     1 SUB1       -0.457
      8 O3A        14.3660   14.6040    8.1450 O.3       1 SUB1       -0.257
      9 O5         12.4560   13.8060    6.6750 O.3       1 SUB1       -0.253
     10 C5         11.7700   15.0780    6.6220 C.3       1 SUB1        0.111
     11 C4         10.8650   15.1420    5.4060 C.3       1 SUB1        0.118
     12 O4         11.6710   15.0110    4.2000 O.3       1 SUB1       -0.344
     13 C3          9.7830   14.0650    5.3210 C.3       1 SUB1        0.114
     14 O3          8.5770   14.5770    4.7480 O.3       1 SUB1       -0.386
     15 C2         10.4100   13.0240    4.4010 C.3       1 SUB1        0.129
     16 O2          9.4310   12.2580    3.7220 O.3       1 SUB1       -0.385
     17 C1         11.2220   13.9010    3.4400 C.3       1 SUB1        0.172
     18 N9         12.4050   13.2350    2.8770 N.ar      1 SUB1       -0.260
     19 C8         13.2570   12.3640    3.5270 C.ar      1 SUB1        0.142
     20 N7         14.2390   11.9160    2.7740 N.ar      1 SUB1       -0.172
     21 C5         14.0280   12.5310    1.5490 C.ar      1 SUB1        0.238
     22 C6         14.7330   12.4720    0.3190 C.ar      1 SUB1        0.257
     23 N6         15.8320   11.7350    0.1370 N.pl3     1 SUB1       -0.255
     24 N1         14.2580   13.2090   -0.7250 N.ar      1 SUB1       -0.126
     25 C2         13.1460   13.9570   -0.5360 C.ar      1 SUB1        0.199
     26 N3         12.3970   14.0920    0.5780 N.ar      1 SUB1       -0.126
     27 C4         12.8960   13.3480    1.5930 C.ar      1 SUB1        0.229
     28 H101       12.5123   15.8877    6.5640 H         1 SUB1        0.065
     29 H102       11.1637   15.2007    7.5316 H         1 SUB1        0.065
     30 H111       10.3701   16.1244    5.4116 H         1 SUB1        0.065
     31 H131        9.5682   13.6421    6.3135 H         1 SUB1        0.065
     32 H141        7.9273   13.8850    4.7096 H         1 SUB1        0.210
     33 H151       11.0672   12.3455    4.9647 H         1 SUB1        0.067
     34 H161        8.8899   12.8337    3.1944 H         1 SUB1        0.210
     35 H171       10.5733   14.2339    2.6164 H         1 SUB1        0.088
     36 H191       13.1285   12.0753    4.5639 H         1 SUB1        0.118
     37 H231       16.3032   11.7304   -0.7789 H         1 SUB1        0.235
     38 H232       16.2083   11.1712    0.9126 H         1 SUB1        0.235
     39 H251       12.8117   14.5248   -1.3967 H         1 SUB1        0.164
@<TRIPOS>BOND
     1    1    2 2  
     2    1    3 2  
     3    1    4 2  
     4    8    1 1  
     5    5    6 2  
     6    5    7 2  
     7    5    8 1  
     8    5    9 1  
     9    9   10 1  
    10   10   11 1  
    11   11   12 1  
    12   11   13 1  
    13   12   17 1  
    14   13   14 1  
    15   13   15 1  
    16   15   16 1  
    17   15   17 1  
    18   17   18 1  
    19   18   19 ar 
    20   18   27 ar 
    21   19   20 ar 
    22   20   21 ar 
    23   21   22 ar 
    24   21   27 ar 
    25   22   23 1  
    26   22   24 ar 
    27   24   25 ar 
    28   25   26 ar 
    29   26   27 ar 
    30   10   28 1  
    31   10   29 1  
    32   11   30 1  
    33   13   31 1  
    34   14   32 1  
    35   15   33 1  
    36   16   34 1  
    37   17   35 1  
    38   19   36 1  
    39   23   37 1  
    40   23   38 1  
    41   25   39 1  
@<TRIPOS>SUBSTRUCTURE
     1 SUB1        1 GROUP

