2i80_ligand
  -I-interpret- 

 31 31  0  0  0  0  0  0  0  0999 V2000
   35.2990   -0.6100   25.9930 F   0  0  0  0  0
   34.8620    0.0310   24.9550 C   0  0  0  0  0
   35.8440   -0.0780   24.0830 F   0  0  0  0  0
   33.8260   -0.5680   24.4860 F   0  0  0  0  0
   34.7170    1.4860   25.2660 C   0  0  0  0  0
   34.8970    2.3980   24.2630 C   0  0  0  0  0
   34.8500    3.7460   24.5360 C   0  0  0  0  0
   34.5230    1.9250   26.5580 C   0  0  0  0  0
   34.4600    3.2690   26.8320 C   0  0  0  0  0
   34.6050    4.2040   25.8240 C   0  0  0  0  0
   34.5510    5.5030   26.1680 N   0  0  0  0  0
   34.7650    6.4940   25.3320 C   0  0  0  0  0
   34.9960    6.2400   24.1720 O   0  0  0  0  0
   34.6770    7.9720   25.6960 C   0  0  0  0  0
   34.3720    8.3890   27.1510 C   0  0  0  0  0
   36.0180    8.5760   25.1800 C   0  0  0  0  0
   33.4970    8.4080   24.8830 C   0  0  0  0  0
   33.3260    7.5860   23.3390 Cl  0  0  0  0  0
   35.0783    2.0561   23.2440 H   0  0  0  0  0
   35.0071    4.4636   23.7308 H   0  0  0  0  0
   34.4190    1.2014   27.3666 H   0  0  0  0  0
   34.2937    3.6026   27.8563 H   0  0  0  0  0
   34.3305    5.7330   27.1369 H   0  0  0  0  0
   33.4045    7.9844   27.4484 H   0  0  0  0  0
   35.1482    7.9993   27.8096 H   0  0  0  0  0
   34.3487    9.4767   27.2186 H   0  0  0  0  0
   36.8527    8.0817   25.6770 H   0  0  0  0  0
   36.0930    8.4240   24.1033 H   0  0  0  0  0
   36.0428    9.6432   25.4002 H   0  0  0  0  0
   33.6352    9.4671   24.6653 H   0  0  0  0  0
   32.6061    8.1760   25.4666 H   0  0  0  0  0
  1  2  1  0  0  0
  2  3  1  0  0  0
  2  4  1  0  0  0
  2  5  1  0  0  0
  5  6  4  0  0  0
  5  8  4  0  0  0
  6  7  4  0  0  0
  7 10  4  0  0  0
  8  9  4  0  0  0
  9 10  4  0  0  0
 10 11  1  0  0  0
 11 12  1  0  0  0
 12 13  2  0  0  0
 12 14  1  0  0  0
 14 15  1  0  0  0
 14 16  1  0  0  0
 14 17  1  0  0  0
 17 18  1  0  0  0
  6 19  1  0  0  0
  7 20  1  0  0  0
  8 21  1  0  0  0
  9 22  1  0  0  0
 11 23  1  0  0  0
 15 24  1  0  0  0
 15 25  1  0  0  0
 15 26  1  0  0  0
 16 27  1  0  0  0
 16 28  1  0  0  0
 16 29  1  0  0  0
 17 30  1  0  0  0
 17 31  1  0  0  0
M  END
$$$$
