### 
### Created by X-TOOL on Sun Jun  3 12:45:15 2007
### 

@<TRIPOS>MOLECULE
2i80_ligand
   31    31     1     0     0
SMALL
GAST_HUCK


@<TRIPOS>ATOM
      1 F23        35.2990   -0.6100   25.9930 F         1 SUB1       -0.244
      2 C20        34.8620    0.0310   24.9550 C.3       1 SUB1        0.350
      3 F21        35.8440   -0.0780   24.0830 F         1 SUB1       -0.244
      4 F22        33.8260   -0.5680   24.4860 F         1 SUB1       -0.244
      5 C3         34.7170    1.4860   25.2660 C.ar      1 SUB1        0.021
      6 C2         34.8970    2.3980   24.2630 C.ar      1 SUB1       -0.044
      7 C1         34.8500    3.7460   24.5360 C.ar      1 SUB1       -0.004
      8 C4         34.5230    1.9250   26.5580 C.ar      1 SUB1       -0.044
      9 C5         34.4600    3.2690   26.8320 C.ar      1 SUB1       -0.004
     10 C6         34.6050    4.2040   25.8240 C.ar      1 SUB1        0.111
     11 N11        34.5510    5.5030   26.1680 N.am      1 SUB1       -0.206
     12 C12        34.7650    6.4940   25.3320 C.2       1 SUB1        0.247
     13 O18        34.9960    6.2400   24.1720 O.2       1 SUB1       -0.323
     14 C13        34.6770    7.9720   25.6960 C.3       1 SUB1        0.068
     15 C14        34.3720    8.3890   27.1510 C.3       1 SUB1       -0.052
     16 C15        36.0180    8.5760   25.1800 C.3       1 SUB1       -0.052
     17 C16        33.4970    8.4080   24.8830 C.3       1 SUB1        0.035
     18 CL17       33.3260    7.5860   23.3390 Cl        1 SUB1       -0.126
     19 H          35.0783    2.0561   23.2440 H         1 SUB1        0.080
     20 H          35.0071    4.4636   23.7308 H         1 SUB1        0.063
     21 H          34.4190    1.2014   27.3666 H         1 SUB1        0.080
     22 H          34.2937    3.6026   27.8563 H         1 SUB1        0.063
     23 H          34.3305    5.7330   27.1369 H         1 SUB1        0.249
     24 H          33.4045    7.9844   27.4484 H         1 SUB1        0.022
     25 H          35.1482    7.9993   27.8096 H         1 SUB1        0.022
     26 H          34.3487    9.4767   27.2186 H         1 SUB1        0.022
     27 H          36.8527    8.0817   25.6770 H         1 SUB1        0.022
     28 H          36.0930    8.4240   24.1033 H         1 SUB1        0.022
     29 H          36.0428    9.6432   25.4002 H         1 SUB1        0.022
     30 H          33.6352    9.4671   24.6653 H         1 SUB1        0.042
     31 H          32.6061    8.1760   25.4666 H         1 SUB1        0.042
@<TRIPOS>BOND
     1    1    2 1  
     2    2    3 1  
     3    2    4 1  
     4    2    5 1  
     5    5    6 ar 
     6    5    8 ar 
     7    6    7 ar 
     8    7   10 ar 
     9    8    9 ar 
    10    9   10 ar 
    11   10   11 1  
    12   11   12 am 
    13   12   13 2  
    14   12   14 1  
    15   14   15 1  
    16   14   16 1  
    17   14   17 1  
    18   17   18 1  
    19    6   19 1  
    20    7   20 1  
    21    8   21 1  
    22    9   22 1  
    23   11   23 1  
    24   15   24 1  
    25   15   25 1  
    26   15   26 1  
    27   16   27 1  
    28   16   28 1  
    29   16   29 1  
    30   17   30 1  
    31   17   31 1  
@<TRIPOS>SUBSTRUCTURE
     1 SUB1        1 GROUP

