1g32_ligand
  -I-interpret- 

 58 62  0  0  0  0  0  0  0  0999 V2000
   10.1660  -12.6970   23.8340 N   0  0  0  0  0
   10.8230  -10.7090   24.4120 N   0  0  0  0  0
   11.0710  -11.7560   23.6370 C   0  3  0  0  0
   12.0760  -11.8060   22.6420 C   0  0  0  0  0
   12.2170  -12.9390   21.7620 C   0  0  0  0  0
   13.2200  -12.9870   20.7710 C   0  0  0  0  0
   14.1190  -11.9080   20.6180 C   0  0  0  0  0
   14.0130  -10.7820   21.4600 C   0  0  0  0  0
   13.0130  -10.7280   22.4530 C   0  0  0  0  0
   15.1590  -11.9140   19.6150 N   0  0  0  0  0
   16.6070  -11.5930   19.7590 C   0  0  0  0  0
   16.7710  -13.3400   21.5380 N   0  0  0  0  0
   17.4550  -12.5180   20.6530 C   0  0  0  0  0
   18.8740  -12.5480   20.5970 N   0  0  0  0  0
   19.0790  -13.5130   21.5770 C   0  0  0  0  0
   17.8250  -13.9740   22.1300 C   0  0  0  0  0
   20.3100  -14.0490   22.0620 C   0  0  0  0  0
   20.2710  -15.0180   23.0730 C   0  0  0  0  0
   19.0360  -15.4790   23.6240 C   0  0  0  0  0
   17.8040  -14.9660   23.1580 C   0  0  0  0  0
   19.8590  -11.7950   19.7590 C   0  0  0  0  0
   19.0640  -16.5290   24.7460 C   0  0  0  0  0
   20.3380  -16.4640   25.5410 N   0  0  0  0  0
   21.3530  -17.4090   25.8040 C   0  0  0  0  0
   22.4750  -17.0940   26.5840 N   0  0  0  0  0
   22.1430  -15.7810   26.8580 C   0  0  0  0  0
   20.8880  -15.4060   26.2450 C   0  0  0  0  0
   22.8680  -14.8260   27.6370 C   0  0  0  0  0
   22.3250  -13.5250   27.7860 C   0  0  0  0  0
   21.1070  -13.1530   27.1880 C   0  0  0  0  0
   20.3730  -14.0790   26.4250 C   0  0  0  0  0
   21.2740  -18.8190   25.2420 C   0  0  0  0  0
    9.4646  -12.5887   24.5804 H   0  0  0  0  0
   10.1614  -13.5393   23.2412 H   0  0  0  0  0
   11.4405   -9.8853   24.3780 H   0  0  0  0  0
   10.0129  -10.7194   25.0480 H   0  0  0  0  0
   11.5350  -13.7754   21.8643 H   0  0  0  0  0
   13.3011  -13.8540   20.1253 H   0  0  0  0  0
   14.7031   -9.9542   21.3436 H   0  0  0  0  0
   12.9477   -9.8534   23.0901 H   0  0  0  0  0
   15.1568  -12.9199   19.2221 H   0  0  0  0  0
   17.0584  -11.6175   18.7562 H   0  0  0  0  0
   16.6868  -10.5806   20.1816 H   0  0  0  0  0
   21.2570  -13.7126   21.6557 H   0  0  0  0  0
   21.2019  -15.4287   23.4469 H   0  0  0  0  0
   16.8652  -15.3170   23.5710 H   0  0  0  0  0
   19.3131  -11.1122   19.0913 H   0  0  0  0  0
   20.5278  -11.2064   20.4041 H   0  0  0  0  0
   20.4475  -12.4970   19.1500 H   0  0  0  0  0
   18.2210  -16.3512   25.4299 H   0  0  0  0  0
   18.9835  -17.5333   24.3046 H   0  0  0  0  0
   23.8105  -15.0905   28.1026 H   0  0  0  0  0
   22.8644  -12.7949   28.3785 H   0  0  0  0  0
   20.7311  -12.1444   27.3164 H   0  0  0  0  0
   19.4280  -13.7930   25.9776 H   0  0  0  0  0
   22.1602  -19.3841   25.5665 H   0  0  0  0  0
   20.3710  -19.3224   25.6175 H   0  0  0  0  0
   21.2543  -18.7841   24.1428 H   0  0  0  0  0
  1  3  1  0  0  0
  3  4  1  0  0  0
  4  5  4  0  0  0
  4  9  4  0  0  0
  5  6  4  0  0  0
  6  7  4  0  0  0
  7  8  4  0  0  0
  7 10  1  0  0  0
  8  9  4  0  0  0
 10 11  1  0  0  0
 11 13  1  0  0  0
 13 14  1  0  0  0
 14 15  1  0  0  0
 14 21  1  0  0  0
 15 16  4  0  0  0
 15 17  4  0  0  0
 16 20  4  0  0  0
 17 18  4  0  0  0
 18 19  4  0  0  0
 19 20  4  0  0  0
 19 22  1  0  0  0
 22 23  1  0  0  0
 23 24  1  0  0  0
 23 27  1  0  0  0
 24 25  2  0  0  0
 24 32  1  0  0  0
 25 26  1  0  0  0
 26 27  4  0  0  0
 26 28  4  0  0  0
 27 31  4  0  0  0
 28 29  4  0  0  0
 29 30  4  0  0  0
 30 31  4  0  0  0
 16 12  1  0  0  0
 13 12  2  0  0  0
  3  2  1  0  0  0
  1 33  1  0  0  0
  1 34  1  0  0  0
  2 35  1  0  0  0
  2 36  1  0  0  0
  5 37  1  0  0  0
  6 38  1  0  0  0
  8 39  1  0  0  0
  9 40  1  0  0  0
 10 41  1  0  0  0
 11 42  1  0  0  0
 11 43  1  0  0  0
 17 44  1  0  0  0
 18 45  1  0  0  0
 20 46  1  0  0  0
 21 47  1  0  0  0
 21 48  1  0  0  0
 21 49  1  0  0  0
 22 50  1  0  0  0
 22 51  1  0  0  0
 28 52  1  0  0  0
 29 53  1  0  0  0
 30 54  1  0  0  0
 31 55  1  0  0  0
 32 56  1  0  0  0
 32 57  1  0  0  0
 32 58  1  0  0  0
M  END
$$$$
