### 
### Created by X-TOOL on Mon Oct 24 23:08:06 2005
### 

@<TRIPOS>MOLECULE
1g32_ligand
   58    62     1     0     0
SMALL
GAST_HUCK


@<TRIPOS>ATOM
      1 N1         10.1660  -12.6970   23.8340 N.pl3     1 SUB1       -0.201
      2 N2         10.8230  -10.7090   24.4120 N.pl3     1 SUB1       -0.201
      3 C1         11.0710  -11.7560   23.6370 C.cat     1 SUB1        0.309
      4 C2         12.0760  -11.8060   22.6420 C.ar      1 SUB1        0.173
      5 C3         12.2170  -12.9390   21.7620 C.ar      1 SUB1       -0.019
      6 C4         13.2200  -12.9870   20.7710 C.ar      1 SUB1       -0.043
      7 C5         14.1190  -11.9080   20.6180 C.ar      1 SUB1        0.029
      8 C6         14.0130  -10.7820   21.4600 C.ar      1 SUB1       -0.043
      9 C7         13.0130  -10.7280   22.4530 C.ar      1 SUB1       -0.019
     10 N          15.1590  -11.9140   19.6150 N.3       1 SUB1       -0.247
     11 C          16.6070  -11.5930   19.7590 C.3       1 SUB1        0.097
     12 N3         16.7710  -13.3400   21.5380 N.2       1 SUB1       -0.319
     13 C8         17.4550  -12.5180   20.6530 C.2       1 SUB1        0.140
     14 N9         18.8740  -12.5480   20.5970 N.pl3     1 SUB1       -0.237
     15 C3A        19.0790  -13.5130   21.5770 C.ar      1 SUB1        0.075
     16 C7A        17.8250  -13.9740   22.1300 C.ar      1 SUB1        0.014
     17 C10        20.3100  -14.0490   22.0620 C.ar      1 SUB1       -0.047
     18 C11        20.2710  -15.0180   23.0730 C.ar      1 SUB1       -0.071
     19 C12        19.0360  -15.4790   23.6240 C.ar      1 SUB1       -0.031
     20 C13        17.8040  -14.9660   23.1580 C.ar      1 SUB1       -0.063
     21 C14        19.8590  -11.7950   19.7590 C.3       1 SUB1        0.045
     22 C9         19.0640  -16.5290   24.7460 C.3       1 SUB1        0.085
     23 N4         20.3380  -16.4640   25.5410 N.pl3     1 SUB1       -0.223
     24 C15        21.3530  -17.4090   25.8040 C.2       1 SUB1        0.122
     25 N16        22.4750  -17.0940   26.5840 N.2       1 SUB1       -0.318
     26 C17        22.1430  -15.7810   26.8580 C.ar      1 SUB1        0.021
     27 C18        20.8880  -15.4060   26.2450 C.ar      1 SUB1        0.083
     28 C19        22.8680  -14.8260   27.6370 C.ar      1 SUB1       -0.066
     29 C20        22.3250  -13.5250   27.7860 C.ar      1 SUB1       -0.079
     30 C21        21.1070  -13.1530   27.1880 C.ar      1 SUB1       -0.077
     31 C22        20.3730  -14.0790   26.4250 C.ar      1 SUB1       -0.042
     32 C23        21.2740  -18.8190   25.2420 C.3       1 SUB1        0.019
     33 H11         9.4646  -12.5887   24.5804 H         1 SUB1        0.192
     34 H12        10.1614  -13.5393   23.2412 H         1 SUB1        0.192
     35 H21        11.4405   -9.8853   24.3780 H         1 SUB1        0.192
     36 H22        10.0129  -10.7194   25.0480 H         1 SUB1        0.192
     37 H51        11.5350  -13.7754   21.8643 H         1 SUB1        0.063
     38 H61        13.3011  -13.8540   20.1253 H         1 SUB1        0.052
     39 H81        14.7031   -9.9542   21.3436 H         1 SUB1        0.052
     40 H91        12.9477   -9.8534   23.0901 H         1 SUB1        0.063
     41 H101       15.1568  -12.9199   19.2221 H         1 SUB1        0.159
     42 H111       17.0584  -11.6175   18.7562 H         1 SUB1        0.075
     43 H112       16.6868  -10.5806   20.1816 H         1 SUB1        0.075
     44 H171       21.2570  -13.7126   21.6557 H         1 SUB1        0.053
     45 H181       21.2019  -15.4287   23.4469 H         1 SUB1        0.048
     46 H201       16.8652  -15.3170   23.5710 H         1 SUB1        0.046
     47 H211       19.3131  -11.1122   19.0913 H         1 SUB1        0.056
     48 H212       20.5278  -11.2064   20.4041 H         1 SUB1        0.056
     49 H213       20.4475  -12.4970   19.1500 H         1 SUB1        0.056
     50 H221       18.2210  -16.3512   25.4299 H         1 SUB1        0.075
     51 H222       18.9835  -17.5333   24.3046 H         1 SUB1        0.075
     52 H281       23.8105  -15.0905   28.1026 H         1 SUB1        0.054
     53 H291       22.8644  -12.7949   28.3785 H         1 SUB1        0.052
     54 H301       20.7311  -12.1444   27.3164 H         1 SUB1        0.053
     55 H311       19.4280  -13.7930   25.9776 H         1 SUB1        0.054
     56 H321       22.1602  -19.3841   25.5665 H         1 SUB1        0.050
     57 H322       20.3710  -19.3224   25.6175 H         1 SUB1        0.050
     58 H323       21.2543  -18.7841   24.1428 H         1 SUB1        0.050
@<TRIPOS>BOND
     1    1    3 1  
     2    3    4 1  
     3    4    5 ar 
     4    4    9 ar 
     5    5    6 ar 
     6    6    7 ar 
     7    7    8 ar 
     8    7   10 1  
     9    8    9 ar 
    10   10   11 1  
    11   11   13 1  
    12   13   14 1  
    13   14   15 1  
    14   14   21 1  
    15   15   16 ar 
    16   15   17 ar 
    17   16   20 ar 
    18   17   18 ar 
    19   18   19 ar 
    20   19   20 ar 
    21   19   22 1  
    22   22   23 1  
    23   23   24 1  
    24   23   27 1  
    25   24   25 2  
    26   24   32 1  
    27   25   26 1  
    28   26   27 ar 
    29   26   28 ar 
    30   27   31 ar 
    31   28   29 ar 
    32   29   30 ar 
    33   30   31 ar 
    34   16   12 1  
    35   13   12 2  
    36    3    2 1  
    37    1   33 1  
    38    1   34 1  
    39    2   35 1  
    40    2   36 1  
    41    5   37 1  
    42    6   38 1  
    43    8   39 1  
    44    9   40 1  
    45   10   41 1  
    46   11   42 1  
    47   11   43 1  
    48   17   44 1  
    49   18   45 1  
    50   20   46 1  
    51   21   47 1  
    52   21   48 1  
    53   21   49 1  
    54   22   50 1  
    55   22   51 1  
    56   28   52 1  
    57   29   53 1  
    58   30   54 1  
    59   31   55 1  
    60   32   56 1  
    61   32   57 1  
    62   32   58 1  
@<TRIPOS>SUBSTRUCTURE
     1 SUB1        1 GROUP

