1jfh_ligand
  -I-interpret- 

 51 52  0  0  0  0  0  0  0  0999 V2000
   -7.7630   41.7280   20.9390 C   0  0  0  0  0
   -8.7000   40.5230   20.8400 C   0  0  0  0  0
   -9.9900   40.9060   20.1030 C   0  0  0  0  0
  -10.6350   42.1250   20.7640 C   0  0  0  0  0
   -9.6030   43.2570   20.8020 C   0  0  0  0  0
  -10.1120   44.5210   21.4700 C   0  0  0  0  0
  -11.7110   42.8030   18.2010 C   0  0  0  0  0
   -8.0500   39.4700   20.1440 O   0  0  0  0  0
  -10.8980   39.8140   20.1240 O   0  0  0  0  0
  -12.2020   42.6460   19.9550 S   0  0  0  0  0
   -8.4440   42.8240   21.5340 O   0  0  0  0  0
  -10.5330   44.2630   22.8010 O   0  0  0  0  0
   -2.5600   43.0970   18.8850 C   0  0  0  0  0
   -3.0190   41.6780   18.5080 C   0  0  0  0  0
   -4.5380   41.6070   18.3430 C   0  0  0  0  0
   -5.2450   42.1520   19.5860 C   0  0  0  0  0
   -4.7040   43.5570   19.8750 C   0  0  0  0  0
   -5.2770   44.2090   21.1200 C   0  0  0  0  0
   -2.5540   45.3920   18.0990 C   0  0  0  0  0
   -2.8460   43.9980   17.8150 O   0  0  0  0  0
   -2.3920   41.2530   17.3060 O   0  0  0  0  0
   -4.9340   40.2600   18.1230 O   0  0  0  0  0
   -7.0590   42.1610   19.3180 S   0  0  0  0  0
   -3.2750   43.5090   20.0410 O   0  0  0  0  0
   -4.9180   43.4960   22.2900 O   0  0  0  0  0
   -6.9274   41.4530   21.5993 H   0  0  0  0  0
   -8.9544   40.1827   21.8546 H   0  0  0  0  0
   -9.7464   41.1515   19.0588 H   0  0  0  0  0
  -10.8815   41.8539   21.8012 H   0  0  0  0  0
   -9.3159   43.4964   19.7675 H   0  0  0  0  0
  -10.9629   44.9138   20.8941 H   0  0  0  0  0
   -9.3048   45.2680   21.4872 H   0  0  0  0  0
  -12.5801   43.1157   17.6036 H   0  0  0  0  0
  -11.3442   41.8328   17.8346 H   0  0  0  0  0
  -10.9134   43.5550   18.1094 H   0  0  0  0  0
   -8.6266   38.7162   20.1023 H   0  0  0  0  0
  -10.4935   39.0593   19.7126 H   0  0  0  0  0
   -9.8006   43.9271   23.3041 H   0  0  0  0  0
   -1.4796   43.0971   19.0915 H   0  0  0  0  0
   -2.7246   40.9946   19.3181 H   0  0  0  0  0
   -4.8295   42.2140   17.4732 H   0  0  0  0  0
   -5.0213   41.5017   20.4445 H   0  0  0  0  0
   -4.9461   44.1929   19.0107 H   0  0  0  0  0
   -6.3737   44.2335   21.0385 H   0  0  0  0  0
   -4.8919   45.2366   21.1951 H   0  0  0  0  0
   -2.8053   46.0054   17.2212 H   0  0  0  0  0
   -1.4842   45.5029   18.3297 H   0  0  0  0  0
   -3.1514   45.7235   18.9611 H   0  0  0  0  0
   -2.6490   40.3586   17.1152 H   0  0  0  0  0
   -4.4940   39.9238   17.3511 H   0  0  0  0  0
   -3.9715   43.4751   22.3689 H   0  0  0  0  0
  1  2  1  0  0  0
  1 11  1  0  0  0
 23  1  1  0  0  0
  2  3  1  0  0  0
  2  8  1  0  0  0
  3  4  1  0  0  0
  3  9  1  0  0  0
  5  4  1  0  0  0
  4 10  1  0  0  0
  5  6  1  0  0  0
 11  5  1  0  0  0
  6 12  1  0  0  0
 10  7  1  0  0  0
 14 13  1  0  0  0
 13 20  1  0  0  0
 13 24  1  0  0  0
 15 14  1  0  0  0
 14 21  1  0  0  0
 16 15  1  0  0  0
 15 22  1  0  0  0
 16 17  1  0  0  0
 16 23  1  0  0  0
 17 18  1  0  0  0
 17 24  1  0  0  0
 18 25  1  0  0  0
 20 19  1  0  0  0
  1 26  1  0  0  0
  2 27  1  0  0  0
  3 28  1  0  0  0
  4 29  1  0  0  0
  5 30  1  0  0  0
  6 31  1  0  0  0
  6 32  1  0  0  0
  7 33  1  0  0  0
  7 34  1  0  0  0
  7 35  1  0  0  0
  8 36  1  0  0  0
  9 37  1  0  0  0
 12 38  1  0  0  0
 13 39  1  0  0  0
 14 40  1  0  0  0
 15 41  1  0  0  0
 16 42  1  0  0  0
 17 43  1  0  0  0
 18 44  1  0  0  0
 18 45  1  0  0  0
 19 46  1  0  0  0
 19 47  1  0  0  0
 19 48  1  0  0  0
 21 49  1  0  0  0
 22 50  1  0  0  0
 25 51  1  0  0  0
M  END
$$$$
