### 
### Created by X-TOOL on Tue Oct 25 02:06:19 2005
### 

@<TRIPOS>MOLECULE
1add_ligand
   33    35     1     0     0
SMALL
GAST_HUCK


@<TRIPOS>ATOM
      1 H151        7.8274   20.9732   35.6295 H         1 SUB1        0.209
      2 H161        9.5300   20.8594   37.2006 H         1 SUB1        0.058
      3 H162       10.1975   19.4969   36.2389 H         1 SUB1        0.058
      4 H171        8.9763   18.6293   38.1508 H         1 SUB1        0.065
      5 H191        7.6718   18.2459   35.4316 H         1 SUB1        0.065
      6 H201        8.9106   16.4259   37.2435 H         1 SUB1        0.210
      7 H211        5.7848   17.1402   36.4442 H         1 SUB1        0.068
      8 H221        7.3501   15.8550   37.7591 H         1 SUB1        0.210
      9 H231        5.9908   18.5296   38.9482 H         1 SUB1        0.099
     10 H251        5.1819   19.1547   35.2578 H         1 SUB1        0.133
     11 H291       -0.3338   20.7776   37.4686 H         1 SUB1        0.177
     12 H292        0.6586   20.4820   36.0158 H         1 SUB1        0.177
     13 H301        0.5515   20.5640   39.6333 H         1 SUB1        0.049
     14 H311        2.4800   20.0462   41.0830 H         1 SUB1        0.072
     15 O5'         8.6220   20.5190   35.3750 O.3       1 SUB1       -0.392
     16 C5'         9.2760   20.0150   36.5430 C.3       1 SUB1        0.073
     17 C4'         8.3930   19.0390   37.3130 C.3       1 SUB1        0.113
     18 O4'         7.2280   19.7130   37.8090 O.3       1 SUB1       -0.337
     19 C3'         7.8630   17.8880   36.4540 C.3       1 SUB1        0.115
     20 O3'         8.7560   16.7710   36.3720 O.3       1 SUB1       -0.386
     21 C2'         6.5540   17.5230   37.1310 C.3       1 SUB1        0.138
     22 O2'         6.9290   16.6110   38.1510 O.3       1 SUB1       -0.384
     23 C1'         6.1420   18.7850   37.8890 C.3       1 SUB1        0.199
     24 N9          4.9200   19.2740   37.3940 N.pl3     1 SUB1       -0.198
     25 C8          4.5430   19.3890   36.1080 C.2       1 SUB1        0.108
     26 N7          3.2800   19.8290   36.0060 N.2       1 SUB1       -0.302
     27 C5          2.8340   19.9040   37.2880 C.ar      1 SUB1        0.081
     28 C6          1.6200   20.2460   37.8160 C.ar      1 SUB1        0.060
     29 N6          0.5680   20.5230   37.0410 N.pl3     1 SUB1       -0.330
     30 C1          1.5020   20.2950   39.1870 C.ar      1 SUB1       -0.031
     31 C2          2.5860   20.0040   40.0050 C.ar      1 SUB1       -0.020
     32 N3          3.7490   19.6750   39.4650 N.ar      1 SUB1       -0.303
     33 C4          3.8570   19.6260   38.1290 C.ar      1 SUB1        0.146
@<TRIPOS>BOND
     1   15    1 1  
     2   16    2 1  
     3   16    3 1  
     4   17    4 1  
     5   19    5 1  
     6   20    6 1  
     7   21    7 1  
     8   22    8 1  
     9   23    9 1  
    10   25   10 1  
    11   29   11 1  
    12   29   12 1  
    13   30   13 1  
    14   31   14 1  
    15   16   15 1  
    16   17   16 1  
    17   18   17 1  
    18   19   17 1  
    19   23   18 1  
    20   19   20 1  
    21   21   19 1  
    22   21   22 1  
    23   23   21 1  
    24   24   23 1  
    25   24   25 1  
    26   33   24 1  
    27   26   25 2  
    28   27   26 1  
    29   28   27 ar 
    30   27   33 ar 
    31   28   29 1  
    32   30   28 ar 
    33   30   31 ar 
    34   31   32 ar 
    35   32   33 ar 
@<TRIPOS>SUBSTRUCTURE
     1 SUB1        1 GROUP

