1add_ligand
  -I-interpret- 

 33 35  0  0  0  0  0  0  0  0999 V2000
    7.8274   20.9732   35.6295 H   0  0  0  0  0
    9.5300   20.8594   37.2006 H   0  0  0  0  0
   10.1975   19.4969   36.2389 H   0  0  0  0  0
    8.9763   18.6293   38.1508 H   0  0  0  0  0
    7.6718   18.2459   35.4316 H   0  0  0  0  0
    8.9106   16.4259   37.2435 H   0  0  0  0  0
    5.7848   17.1402   36.4442 H   0  0  0  0  0
    7.3501   15.8550   37.7591 H   0  0  0  0  0
    5.9908   18.5296   38.9482 H   0  0  0  0  0
    5.1819   19.1547   35.2578 H   0  0  0  0  0
   -0.3338   20.7776   37.4686 H   0  0  0  0  0
    0.6586   20.4820   36.0158 H   0  0  0  0  0
    0.5515   20.5640   39.6333 H   0  0  0  0  0
    2.4800   20.0462   41.0830 H   0  0  0  0  0
    8.6220   20.5190   35.3750 O   0  0  0  0  0
    9.2760   20.0150   36.5430 C   0  0  0  0  0
    8.3930   19.0390   37.3130 C   0  0  0  0  0
    7.2280   19.7130   37.8090 O   0  0  0  0  0
    7.8630   17.8880   36.4540 C   0  0  0  0  0
    8.7560   16.7710   36.3720 O   0  0  0  0  0
    6.5540   17.5230   37.1310 C   0  0  0  0  0
    6.9290   16.6110   38.1510 O   0  0  0  0  0
    6.1420   18.7850   37.8890 C   0  0  0  0  0
    4.9200   19.2740   37.3940 N   0  0  0  0  0
    4.5430   19.3890   36.1080 C   0  0  0  0  0
    3.2800   19.8290   36.0060 N   0  0  0  0  0
    2.8340   19.9040   37.2880 C   0  0  0  0  0
    1.6200   20.2460   37.8160 C   0  0  0  0  0
    0.5680   20.5230   37.0410 N   0  0  0  0  0
    1.5020   20.2950   39.1870 C   0  0  0  0  0
    2.5860   20.0040   40.0050 C   0  0  0  0  0
    3.7490   19.6750   39.4650 N   0  0  0  0  0
    3.8570   19.6260   38.1290 C   0  0  0  0  0
 15  1  1  0  0  0
 16  2  1  0  0  0
 16  3  1  0  0  0
 17  4  1  0  0  0
 19  5  1  0  0  0
 20  6  1  0  0  0
 21  7  1  0  0  0
 22  8  1  0  0  0
 23  9  1  0  0  0
 25 10  1  0  0  0
 29 11  1  0  0  0
 29 12  1  0  0  0
 30 13  1  0  0  0
 31 14  1  0  0  0
 16 15  1  0  0  0
 17 16  1  0  0  0
 18 17  1  0  0  0
 19 17  1  0  0  0
 23 18  1  0  0  0
 19 20  1  0  0  0
 21 19  1  0  0  0
 21 22  1  0  0  0
 23 21  1  0  0  0
 24 23  1  0  0  0
 24 25  1  0  0  0
 33 24  1  0  0  0
 26 25  2  0  0  0
 27 26  1  0  0  0
 28 27  4  0  0  0
 27 33  4  0  0  0
 28 29  1  0  0  0
 30 28  4  0  0  0
 30 31  4  0  0  0
 31 32  4  0  0  0
 32 33  4  0  0  0
M  END
$$$$
