### 
### Created by X-TOOL on Mon Oct 24 21:59:03 2005
### 

@<TRIPOS>MOLECULE
1x9d_ligand
   48    49     1     0     0
SMALL
GAST_HUCK


@<TRIPOS>ATOM
      1 O12        -0.0040   -3.4490   -0.6700 O.3       1 SUB1       -0.386
      2 C12         1.4250   -3.4720   -0.7620 C.3       1 SUB1        0.119
      3 C13         1.9150   -2.0550   -0.6930 C.3       1 SUB1        0.113
      4 O13         1.2670   -1.3420    0.3980 O.3       1 SUB1       -0.387
      5 C14         3.4070   -1.9860   -0.4680 C.3       1 SUB1        0.112
      6 O14         4.0930   -2.5180   -1.6270 O.3       1 SUB1       -0.387
      7 C15         3.7570   -2.6860    0.8380 C.3       1 SUB1        0.112
      8 C16         3.8430   -1.6440    1.9530 C.3       1 SUB1        0.073
      9 O16         4.0940   -2.2420    3.2060 O.3       1 SUB1       -0.392
     10 O15         2.7790   -3.6500    1.2770 O.3       1 SUB1       -0.355
     11 C11         1.9670   -4.3660    0.3140 C.3       1 SUB1        0.133
     12 S22         2.7590   -5.8030   -0.4960 S.3       1 SUB1       -0.116
     13 C22         2.9180   -7.0770    0.7840 C.3       1 SUB1        0.087
     14 C21         3.9930   -8.0690    0.4110 C.3       1 SUB1        0.174
     15 O21         4.2090   -8.8930    1.5570 O.3       1 SUB1       -0.353
     16 C27         5.3770   -9.7280    1.4660 C.3       1 SUB1        0.040
     17 O25         3.5920   -8.8310   -0.7200 O.3       1 SUB1       -0.342
     18 C23         1.6110   -7.8440    1.0500 C.3       1 SUB1        0.100
     19 O23         0.5890   -6.8980    1.3390 O.3       1 SUB1       -0.388
     20 C24         1.2250   -8.7560   -0.1260 C.3       1 SUB1        0.111
     21 O24         0.1580   -9.6460    0.2780 O.3       1 SUB1       -0.387
     22 C25         2.3930   -9.6210   -0.5540 C.3       1 SUB1        0.113
     23 C26         2.0710  -10.2620   -1.8850 C.3       1 SUB1        0.073
     24 O26         3.0330  -11.2850   -2.1610 O.3       1 SUB1       -0.392
     25 H11        -0.2608   -3.0516    0.1538 H         1 SUB1        0.210
     26 H21         1.7207   -3.8917   -1.7348 H         1 SUB1        0.065
     27 H31         1.6739   -1.5576   -1.6440 H         1 SUB1        0.065
     28 H41         1.4633   -1.7766    1.2196 H         1 SUB1        0.210
     29 H51         3.6964   -0.9297   -0.3663 H         1 SUB1        0.065
     30 H61         5.0314   -2.4747   -1.4857 H         1 SUB1        0.210
     31 H71         4.7271   -3.1896    0.7138 H         1 SUB1        0.065
     32 H81         2.8905   -1.0962    2.0036 H         1 SUB1        0.058
     33 H82         4.6580   -0.9419    1.7231 H         1 SUB1        0.058
     34 H91         3.3911   -2.8463    3.4137 H         1 SUB1        0.209
     35 H111        1.1082   -4.7567    0.8795 H         1 SUB1        0.074
     36 H131        3.2130   -6.5757    1.7176 H         1 SUB1        0.049
     37 H141        4.9222   -7.5342    0.1647 H         1 SUB1        0.092
     38 H161        5.4713  -10.3278    2.3833 H         1 SUB1        0.052
     39 H162        6.2703   -9.0973    1.3470 H         1 SUB1        0.052
     40 H163        5.2825  -10.3974    0.5983 H         1 SUB1        0.052
     41 H181        1.7564   -8.4815    1.9345 H         1 SUB1        0.063
     42 H191       -0.2266   -7.3557    1.5061 H         1 SUB1        0.210
     43 H201        0.8956   -8.1347   -0.9718 H         1 SUB1        0.065
     44 H211       -0.0775  -10.2076   -0.4511 H         1 SUB1        0.210
     45 H221        2.5669  -10.3984    0.2045 H         1 SUB1        0.065
     46 H231        2.1064   -9.5005   -2.6780 H         1 SUB1        0.058
     47 H232        1.0647  -10.7045   -1.8461 H         1 SUB1        0.058
     48 H241        3.9014  -10.9011   -2.1936 H         1 SUB1        0.209
@<TRIPOS>BOND
     1    1    2 1  
     2    2    3 1  
     3    2   11 1  
     4    3    4 1  
     5    3    5 1  
     6    5    6 1  
     7    5    7 1  
     8    7    8 1  
     9    7   10 1  
    10    8    9 1  
    11   10   11 1  
    12   11   12 1  
    13   12   13 1  
    14   13   14 1  
    15   13   18 1  
    16   14   15 1  
    17   14   17 1  
    18   15   16 1  
    19   17   22 1  
    20   18   19 1  
    21   18   20 1  
    22   20   21 1  
    23   20   22 1  
    24   22   23 1  
    25   23   24 1  
    26    1   25 1  
    27    2   26 1  
    28    3   27 1  
    29    4   28 1  
    30    5   29 1  
    31    6   30 1  
    32    7   31 1  
    33    8   32 1  
    34    8   33 1  
    35    9   34 1  
    36   11   35 1  
    37   13   36 1  
    38   14   37 1  
    39   16   38 1  
    40   16   39 1  
    41   16   40 1  
    42   18   41 1  
    43   19   42 1  
    44   20   43 1  
    45   21   44 1  
    46   22   45 1  
    47   23   46 1  
    48   23   47 1  
    49   24   48 1  
@<TRIPOS>SUBSTRUCTURE
     1 SUB1        1 GROUP

