1x9d_ligand
  -I-interpret- 

 48 49  0  0  0  0  0  0  0  0999 V2000
   -0.0040   -3.4490   -0.6700 O   0  0  0  0  0
    1.4250   -3.4720   -0.7620 C   0  0  0  0  0
    1.9150   -2.0550   -0.6930 C   0  0  0  0  0
    1.2670   -1.3420    0.3980 O   0  0  0  0  0
    3.4070   -1.9860   -0.4680 C   0  0  0  0  0
    4.0930   -2.5180   -1.6270 O   0  0  0  0  0
    3.7570   -2.6860    0.8380 C   0  0  0  0  0
    3.8430   -1.6440    1.9530 C   0  0  0  0  0
    4.0940   -2.2420    3.2060 O   0  0  0  0  0
    2.7790   -3.6500    1.2770 O   0  0  0  0  0
    1.9670   -4.3660    0.3140 C   0  0  0  0  0
    2.7590   -5.8030   -0.4960 S   0  0  0  0  0
    2.9180   -7.0770    0.7840 C   0  0  0  0  0
    3.9930   -8.0690    0.4110 C   0  0  0  0  0
    4.2090   -8.8930    1.5570 O   0  0  0  0  0
    5.3770   -9.7280    1.4660 C   0  0  0  0  0
    3.5920   -8.8310   -0.7200 O   0  0  0  0  0
    1.6110   -7.8440    1.0500 C   0  0  0  0  0
    0.5890   -6.8980    1.3390 O   0  0  0  0  0
    1.2250   -8.7560   -0.1260 C   0  0  0  0  0
    0.1580   -9.6460    0.2780 O   0  0  0  0  0
    2.3930   -9.6210   -0.5540 C   0  0  0  0  0
    2.0710  -10.2620   -1.8850 C   0  0  0  0  0
    3.0330  -11.2850   -2.1610 O   0  0  0  0  0
   -0.2608   -3.0516    0.1538 H   0  0  0  0  0
    1.7207   -3.8917   -1.7348 H   0  0  0  0  0
    1.6739   -1.5576   -1.6440 H   0  0  0  0  0
    1.4633   -1.7766    1.2196 H   0  0  0  0  0
    3.6964   -0.9297   -0.3663 H   0  0  0  0  0
    5.0314   -2.4747   -1.4857 H   0  0  0  0  0
    4.7271   -3.1896    0.7138 H   0  0  0  0  0
    2.8905   -1.0962    2.0036 H   0  0  0  0  0
    4.6580   -0.9419    1.7231 H   0  0  0  0  0
    3.3911   -2.8463    3.4137 H   0  0  0  0  0
    1.1082   -4.7567    0.8795 H   0  0  0  0  0
    3.2130   -6.5757    1.7176 H   0  0  0  0  0
    4.9222   -7.5342    0.1647 H   0  0  0  0  0
    5.4713  -10.3278    2.3833 H   0  0  0  0  0
    6.2703   -9.0973    1.3470 H   0  0  0  0  0
    5.2825  -10.3974    0.5983 H   0  0  0  0  0
    1.7564   -8.4815    1.9345 H   0  0  0  0  0
   -0.2266   -7.3557    1.5061 H   0  0  0  0  0
    0.8956   -8.1347   -0.9718 H   0  0  0  0  0
   -0.0775  -10.2076   -0.4511 H   0  0  0  0  0
    2.5669  -10.3984    0.2045 H   0  0  0  0  0
    2.1064   -9.5005   -2.6780 H   0  0  0  0  0
    1.0647  -10.7045   -1.8461 H   0  0  0  0  0
    3.9014  -10.9011   -2.1936 H   0  0  0  0  0
  1  2  1  0  0  0
  2  3  1  0  0  0
  2 11  1  0  0  0
  3  4  1  0  0  0
  3  5  1  0  0  0
  5  6  1  0  0  0
  5  7  1  0  0  0
  7  8  1  0  0  0
  7 10  1  0  0  0
  8  9  1  0  0  0
 10 11  1  0  0  0
 11 12  1  0  0  0
 12 13  1  0  0  0
 13 14  1  0  0  0
 13 18  1  0  0  0
 14 15  1  0  0  0
 14 17  1  0  0  0
 15 16  1  0  0  0
 17 22  1  0  0  0
 18 19  1  0  0  0
 18 20  1  0  0  0
 20 21  1  0  0  0
 20 22  1  0  0  0
 22 23  1  0  0  0
 23 24  1  0  0  0
  1 25  1  0  0  0
  2 26  1  0  0  0
  3 27  1  0  0  0
  4 28  1  0  0  0
  5 29  1  0  0  0
  6 30  1  0  0  0
  7 31  1  0  0  0
  8 32  1  0  0  0
  8 33  1  0  0  0
  9 34  1  0  0  0
 11 35  1  0  0  0
 13 36  1  0  0  0
 14 37  1  0  0  0
 16 38  1  0  0  0
 16 39  1  0  0  0
 16 40  1  0  0  0
 18 41  1  0  0  0
 19 42  1  0  0  0
 20 43  1  0  0  0
 21 44  1  0  0  0
 22 45  1  0  0  0
 23 46  1  0  0  0
 23 47  1  0  0  0
 24 48  1  0  0  0
M  END
$$$$
