2ces_ligand
  -I-interpret- 

 26 27  0  0  0  0  0  0  0  0999 V2000
   -0.9700   10.9490   10.6440 C   0  0  0  0  0
    0.0720   11.7060    9.8090 C   0  0  0  0  0
   -2.0430   10.3460   10.0900 N   0  0  0  0  0
   -0.3360   11.8420    8.3180 C   0  0  0  0  0
   -1.1040   10.5820    7.7780 C   0  0  0  0  0
   -2.3680   10.4650    8.6550 C   0  0  0  0  0
   -3.5330    9.5700    8.2970 C   0  0  0  0  0
   -1.9560    9.9340   12.2890 C   0  0  0  0  0
   -2.6270    9.6300   11.0880 C   0  0  0  0  0
   -0.9020   10.7300   11.9630 N   0  0  0  0  0
    0.8770   12.1430    7.5950 O   0  0  0  0  0
    0.6100   12.8660   10.4180 O   0  0  0  0  0
   -1.4750   10.7830    6.4060 O   0  0  0  0  0
   -2.9360    8.2870    8.5940 O   0  0  0  0  0
    0.9498   11.0601    9.7884 H   0  0  0  0  0
   -1.0602   12.6450    8.1807 H   0  0  0  0  0
   -0.4916    9.6814    7.8235 H   0  0  0  0  0
   -2.8020   11.4279    8.3856 H   0  0  0  0  0
   -3.8993    9.6802    7.2763 H   0  0  0  0  0
   -4.4566    9.7818    8.8357 H   0  0  0  0  0
   -2.2292    9.5959   13.2886 H   0  0  0  0  0
   -3.4658    8.9426   10.9781 H   0  0  0  0  0
    1.2914   12.9201    7.9770 H   0  0  0  0  0
    0.8273   12.6741   11.3332 H   0  0  0  0  0
   -0.6827   10.8546    5.8686 H   0  0  0  0  0
   -2.6845    8.2590    9.5200 H   0  0  0  0  0
  1  2  1  0  0  0
  1  3  1  0  0  0
  1 10  2  0  0  0
  2  4  1  0  0  0
  2 12  1  0  0  0
  3  6  1  0  0  0
  3  9  1  0  0  0
  4  5  1  0  0  0
  4 11  1  0  0  0
  5  6  1  0  0  0
  5 13  1  0  0  0
  6  7  1  0  0  0
  7 14  1  0  0  0
  9  8  2  0  0  0
  8 10  1  0  0  0
  2 15  1  0  0  0
  4 16  1  0  0  0
  5 17  1  0  0  0
  6 18  1  0  0  0
  7 19  1  0  0  0
  7 20  1  0  0  0
  8 21  1  0  0  0
  9 22  1  0  0  0
 11 23  1  0  0  0
 12 24  1  0  0  0
 13 25  1  0  0  0
 14 26  1  0  0  0
M  END
$$$$
