### 
### Created by X-TOOL on Sun Jun  3 11:19:35 2007
### 

@<TRIPOS>MOLECULE
2ces_ligand
   26    27     1     0     0
SMALL
GAST_HUCK


@<TRIPOS>ATOM
      1 C1         -0.9700   10.9490   10.6440 C.2       1 SUB1        0.147
      2 C2          0.0720   11.7060    9.8090 C.3       1 SUB1        0.159
      3 N10        -2.0430   10.3460   10.0900 N.pl3     1 SUB1       -0.240
      4 C3         -0.3360   11.8420    8.3180 C.3       1 SUB1        0.125
      5 C4         -1.1040   10.5820    7.7780 C.3       1 SUB1        0.118
      6 C5         -2.3680   10.4650    8.6550 C.3       1 SUB1        0.120
      7 C6         -3.5330    9.5700    8.2970 C.3       1 SUB1        0.077
      8 C7         -1.9560    9.9340   12.2890 C.2       1 SUB1       -0.036
      9 C8         -2.6270    9.6300   11.0880 C.2       1 SUB1        0.029
     10 N1         -0.9020   10.7300   11.9630 N.2       1 SUB1       -0.337
     11 O3          0.8770   12.1430    7.5950 O.3       1 SUB1       -0.384
     12 O2          0.6100   12.8660   10.4180 O.3       1 SUB1       -0.370
     13 O4         -1.4750   10.7830    6.4060 O.3       1 SUB1       -0.386
     14 O6         -2.9360    8.2870    8.5940 O.3       1 SUB1       -0.392
     15 H           0.9498   11.0601    9.7884 H         1 SUB1        0.086
     16 H          -1.0602   12.6450    8.1807 H         1 SUB1        0.068
     17 H          -0.4916    9.6814    7.8235 H         1 SUB1        0.065
     18 H          -2.8020   11.4279    8.3856 H         1 SUB1        0.070
     19 H          -3.8993    9.6802    7.2763 H         1 SUB1        0.059
     20 H          -4.4566    9.7818    8.8357 H         1 SUB1        0.059
     21 H          -2.2292    9.5959   13.2886 H         1 SUB1        0.041
     22 H          -3.4658    8.9426   10.9781 H         1 SUB1        0.080
     23 H           1.2914   12.9201    7.9770 H         1 SUB1        0.210
     24 H           0.8273   12.6741   11.3332 H         1 SUB1        0.214
     25 H          -0.6827   10.8546    5.8686 H         1 SUB1        0.210
     26 H          -2.6845    8.2590    9.5200 H         1 SUB1        0.209
@<TRIPOS>BOND
     1    1    2 1  
     2    1    3 1  
     3    1   10 2  
     4    2    4 1  
     5    2   12 1  
     6    3    6 1  
     7    3    9 1  
     8    4    5 1  
     9    4   11 1  
    10    5    6 1  
    11    5   13 1  
    12    6    7 1  
    13    7   14 1  
    14    9    8 2  
    15    8   10 1  
    16    2   15 1  
    17    4   16 1  
    18    5   17 1  
    19    6   18 1  
    20    7   19 1  
    21    7   20 1  
    22    8   21 1  
    23    9   22 1  
    24   11   23 1  
    25   12   24 1  
    26   13   25 1  
    27   14   26 1  
@<TRIPOS>SUBSTRUCTURE
     1 SUB1        1 GROUP

