1o2k_ligand
  -I-interpret- 

 45 47  0  0  0  0  0  0  0  0999 V2000
   44.5180   -3.0730   26.1580 C   0  0  0  0  0
   44.8650   -1.7100   26.2080 C   0  0  0  0  0
   44.8360   -0.9990   27.4010 C   0  0  0  0  0
   44.4600   -1.6630   28.5280 C   0  0  0  0  0
   44.1210   -2.9600   28.5480 C   0  0  0  0  0
   44.1370   -3.7100   27.3730 C   0  0  0  0  0
   44.5550   -3.7540   24.9100 C   0  3  0  0  0
   44.3240   -5.0440   24.8420 N   0  0  0  0  0
   44.8120   -3.0870   23.8100 N   0  0  0  0  0
   44.3480   -1.2540   29.7330 N   0  0  0  0  0
   43.7970   -3.3830   29.7540 N   0  0  0  0  0
   43.9590   -2.2640   30.4520 C   0  0  0  0  0
   43.7580   -2.1470   31.8270 C   0  0  0  0  0
   43.3570   -3.2480   32.5640 C   0  0  0  0  0
   43.1810   -3.1470   33.9330 C   0  0  0  0  0
   43.4040   -1.9520   34.5810 C   0  0  0  0  0
   43.8050   -0.8440   33.8640 C   0  0  0  0  0
   43.9770   -0.9380   32.4870 C   0  0  0  0  0
   44.3500    0.1970   31.7890 O   0  0  0  0  0
   44.0840    0.3560   34.5000 O   0  0  0  0  0
   43.7120    0.7010   35.8270 C   0  0  0  0  0
   44.1390    2.1850   36.1070 C   0  0  0  0  0
   42.8870    2.9810   36.5420 C   0  0  0  0  0
   45.0470    2.2250   37.3350 C   0  0  0  0  0
   45.1650   -1.1900   25.3150 H   0  0  0  0  0
   45.1030    0.0440   27.4460 H   0  0  0  0  0
   43.8640   -4.7540   27.4010 H   0  0  0  0  0
   44.1240   -5.5530   25.6940 H   0  0  0  0  0
   44.3110   -5.5860   24.0070 H   0  0  0  0  0
   44.9550   -2.0880   23.8440 H   0  0  0  0  0
   44.8940   -3.5220   22.9170 H   0  0  0  0  0
   44.5120   -0.3500   30.1080 H   0  0  0  0  0
   43.1800   -4.1920   32.0680 H   0  0  0  0  0
   42.8690   -4.0090   34.5040 H   0  0  0  0  0
   43.2630   -1.8910   35.6490 H   0  0  0  0  0
   42.6410    0.5800   35.9120 H   0  0  0  0  0
   44.1990    0.0220   36.5080 H   0  0  0  0  0
   44.6090    2.6460   35.2510 H   0  0  0  0  0
   43.1240    4.0270   36.6920 H   0  0  0  0  0
   42.1180    2.9060   35.7840 H   0  0  0  0  0
   42.4850    2.5850   37.4650 H   0  0  0  0  0
   46.0150    1.8230   37.0890 H   0  0  0  0  0
   45.1630    3.2430   37.6800 H   0  0  0  0  0
   44.6210    1.6410   38.1380 H   0  0  0  0  0
   44.4300   -0.0123   30.8658 H   0  0  0  0  0
  1  2  4  0  0  0
  1  6  4  0  0  0
  1  7  1  0  0  0
  2  3  4  0  0  0
  2 25  1  0  0  0
  3  4  4  0  0  0
  3 26  1  0  0  0
  4  5  4  0  0  0
  4 10  1  0  0  0
  5  6  4  0  0  0
  5 11  1  0  0  0
  6 27  1  0  0  0
  7  8  1  0  0  0
  7  9  1  0  0  0
  8 28  1  0  0  0
  8 29  1  0  0  0
  9 30  1  0  0  0
  9 31  1  0  0  0
 10 12  1  0  0  0
 10 32  1  0  0  0
 11 12  2  0  0  0
 12 13  1  0  0  0
 13 14  4  0  0  0
 13 18  4  0  0  0
 14 15  4  0  0  0
 14 33  1  0  0  0
 15 16  4  0  0  0
 15 34  1  0  0  0
 16 17  4  0  0  0
 16 35  1  0  0  0
 17 18  4  0  0  0
 17 20  1  0  0  0
 18 19  1  0  0  0
 20 21  1  0  0  0
 21 22  1  0  0  0
 21 36  1  0  0  0
 21 37  1  0  0  0
 22 23  1  0  0  0
 22 24  1  0  0  0
 22 38  1  0  0  0
 23 39  1  0  0  0
 23 40  1  0  0  0
 23 41  1  0  0  0
 24 42  1  0  0  0
 24 43  1  0  0  0
 24 44  1  0  0  0
 19 45  1  0  0  0
M  END
$$$$
