### 
### Created by X-TOOL on Mon Oct 24 22:19:47 2005
### 

@<TRIPOS>MOLECULE
1o2k_ligand
   45    47     1     0     0
SMALL
GAST_HUCK


@<TRIPOS>ATOM
      1 C1         44.5180   -3.0730   26.1580 C.ar      1 SUB1        0.171
      2 C2         44.8650   -1.7100   26.2080 C.ar      1 SUB1       -0.020
      3 C3         44.8360   -0.9990   27.4010 C.ar      1 SUB1       -0.036
      4 C4         44.4600   -1.6630   28.5280 C.ar      1 SUB1        0.081
      5 C5         44.1210   -2.9600   28.5480 C.ar      1 SUB1        0.034
      6 C6         44.1370   -3.7100   27.3730 C.ar      1 SUB1       -0.008
      7 C7         44.5550   -3.7540   24.9100 C.cat     1 SUB1        0.310
      8 N1         44.3240   -5.0440   24.8420 N.pl3     1 SUB1       -0.201
      9 N2         44.8120   -3.0870   23.8100 N.pl3     1 SUB1       -0.201
     10 N3         44.3480   -1.2540   29.7330 N.pl3     1 SUB1       -0.251
     11 N4         43.7970   -3.3830   29.7540 N.2       1 SUB1       -0.311
     12 C8         43.9590   -2.2640   30.4520 C.2       1 SUB1        0.133
     13 C1'        43.7580   -2.1470   31.8270 C.ar      1 SUB1        0.057
     14 C2'        43.3570   -3.2480   32.5640 C.ar      1 SUB1       -0.063
     15 C3'        43.1810   -3.1470   33.9330 C.ar      1 SUB1       -0.076
     16 C4'        43.4040   -1.9520   34.5810 C.ar      1 SUB1       -0.037
     17 C5'        43.8050   -0.8440   33.8640 C.ar      1 SUB1        0.126
     18 C6'        43.9770   -0.9380   32.4870 C.ar      1 SUB1        0.138
     19 O6'        44.3500    0.1970   31.7890 O.3       1 SUB1       -0.330
     20 O5'        44.0840    0.3560   34.5000 O.3       1 SUB1       -0.320
     21 C10        43.7120    0.7010   35.8270 C.3       1 SUB1        0.070
     22 C20        44.1390    2.1850   36.1070 C.3       1 SUB1       -0.019
     23 C30        42.8870    2.9810   36.5420 C.3       1 SUB1       -0.060
     24 C40        45.0470    2.2250   37.3350 C.3       1 SUB1       -0.060
     25 H21        45.1650   -1.1900   25.3150 H         1 SUB1        0.059
     26 H31        45.1030    0.0440   27.4460 H         1 SUB1        0.055
     27 H61        43.8640   -4.7540   27.4010 H         1 SUB1        0.059
     28 H81        44.1240   -5.5530   25.6940 H         1 SUB1        0.192
     29 H82        44.3110   -5.5860   24.0070 H         1 SUB1        0.192
     30 H91        44.9550   -2.0880   23.8440 H         1 SUB1        0.192
     31 H92        44.8940   -3.5220   22.9170 H         1 SUB1        0.192
     32 H101       44.5120   -0.3500   30.1080 H         1 SUB1        0.230
     33 H141       43.1800   -4.1920   32.0680 H         1 SUB1        0.054
     34 H151       42.8690   -4.0090   34.5040 H         1 SUB1        0.051
     35 H161       43.2630   -1.8910   35.6490 H         1 SUB1        0.054
     36 H211       42.6410    0.5800   35.9120 H         1 SUB1        0.061
     37 H212       44.1990    0.0220   36.5080 H         1 SUB1        0.061
     38 H221       44.6090    2.6460   35.2510 H         1 SUB1        0.032
     39 H231       43.1240    4.0270   36.6920 H         1 SUB1        0.023
     40 H232       42.1180    2.9060   35.7840 H         1 SUB1        0.023
     41 H233       42.4850    2.5850   37.4650 H         1 SUB1        0.023
     42 H241       46.0150    1.8230   37.0890 H         1 SUB1        0.023
     43 H242       45.1630    3.2430   37.6800 H         1 SUB1        0.023
     44 H243       44.6210    1.6410   38.1380 H         1 SUB1        0.023
     45 H191       44.4300   -0.0123   30.8658 H         1 SUB1        0.248
@<TRIPOS>BOND
     1    1    2 ar 
     2    1    6 ar 
     3    1    7 1  
     4    2    3 ar 
     5    2   25 1  
     6    3    4 ar 
     7    3   26 1  
     8    4    5 ar 
     9    4   10 1  
    10    5    6 ar 
    11    5   11 1  
    12    6   27 1  
    13    7    8 1  
    14    7    9 1  
    15    8   28 1  
    16    8   29 1  
    17    9   30 1  
    18    9   31 1  
    19   10   12 1  
    20   10   32 1  
    21   11   12 2  
    22   12   13 1  
    23   13   14 ar 
    24   13   18 ar 
    25   14   15 ar 
    26   14   33 1  
    27   15   16 ar 
    28   15   34 1  
    29   16   17 ar 
    30   16   35 1  
    31   17   18 ar 
    32   17   20 1  
    33   18   19 1  
    34   20   21 1  
    35   21   22 1  
    36   21   36 1  
    37   21   37 1  
    38   22   23 1  
    39   22   24 1  
    40   22   38 1  
    41   23   39 1  
    42   23   40 1  
    43   23   41 1  
    44   24   42 1  
    45   24   43 1  
    46   24   44 1  
    47   19   45 1  
@<TRIPOS>SUBSTRUCTURE
     1 SUB1        1 GROUP

