1kll_ligand
  -I-interpret- 

 41 43  0  0  0  0  0  0  0  0999 V2000
   12.1079   31.3851   18.1524 H   0  0  0  0  0
   13.1291   32.8239   18.4894 H   0  0  0  0  0
   11.8683   32.8966   17.2119 H   0  0  0  0  0
   12.3433   35.0656   18.1480 H   0  0  0  0  0
   11.3879   36.2715   19.0512 H   0  0  0  0  0
   11.1475   30.5415   19.1021 H   0  0  0  0  0
    9.0281   35.9946   21.3089 H   0  0  0  0  0
    7.0479   35.5269   21.7750 H   0  0  0  0  0
    8.2440   35.5447   23.1151 H   0  0  0  0  0
    4.5806   36.0050   25.5611 H   0  0  0  0  0
    4.7870   34.3421   25.1227 H   0  0  0  0  0
    7.0716   31.5677   24.1843 H   0  0  0  0  0
    7.3012   29.6251   23.6573 H   0  0  0  0  0
    8.5135   29.2698   21.2845 H   0  0  0  0  0
    6.3450   28.3666   22.1652 H   0  0  0  0  0
    5.4812   29.6322   21.5639 H   0  0  0  0  0
    5.2882   29.1758   23.1336 H   0  0  0  0  0
    5.2879   32.5100   23.2877 H   0  0  0  0  0
    9.3750   32.3500   20.8730 C   0  0  0  0  0
   10.3590   31.9110   19.9160 C   0  0  0  0  0
   11.1160   32.9600   19.2210 C   0  0  0  0  0
   10.9290   34.2670   19.4800 C   0  0  0  0  0
    9.8820   34.6750   20.4680 C   0  0  0  0  0
    9.1580   33.6230   21.1020 C   0  0  0  0  0
    8.0540   33.7160   22.1050 C   0  0  0  0  0
    7.7680   32.4700   22.3680 C   0  0  0  0  0
   12.1240   32.4840   18.1990 C   0  0  0  0  0
    8.5130   31.5980   21.6250 N   0  3  0  0  0
   11.6120   35.2890   18.8380 N   0  0  0  0  0
   10.4740   30.7080   19.7510 O   0  0  0  0  0
    9.7160   35.8730   20.6650 O   0  0  0  0  0
    7.4800   34.9430   22.6010 C   0  0  0  0  0
    6.3950   34.5180   23.5750 O   0  0  0  0  0
    5.9940   35.6560   24.1290 C   0  0  0  0  0
    6.1110   36.8420   23.8840 O   0  0  0  0  0
    5.0380   35.3040   25.0140 N   0  0  0  0  0
    6.7940   31.4740   23.1240 C   0  0  0  0  0
    6.9260   30.1080   22.7430 C   0  0  0  0  0
    8.0720   30.1320   21.7820 C   0  0  0  0  0
    5.9500   29.2690   22.3790 N   0  3  0  0  0
    5.5180   31.6190   23.0520 O   0  0  0  0  0
 27  1  1  0  0  0
 27  2  1  0  0  0
 27  3  1  0  0  0
 29  4  1  0  0  0
 29  5  1  0  0  0
 30  6  1  0  0  0
 31  7  1  0  0  0
 32  8  1  0  0  0
 32  9  1  0  0  0
 36 10  1  0  0  0
 36 11  1  0  0  0
 37 12  1  0  0  0
 38 13  1  0  0  0
 39 14  1  0  0  0
 40 15  1  0  0  0
 40 16  1  0  0  0
 40 17  1  0  0  0
 41 18  1  0  0  0
 28 19  1  0  0  0
 24 19  4  0  0  0
 19 20  4  0  0  0
 20 30  1  0  0  0
 20 21  4  0  0  0
 21 27  1  0  0  0
 22 21  4  0  0  0
 22 29  1  0  0  0
 23 22  4  0  0  0
 23 31  1  0  0  0
 24 23  4  0  0  0
 25 24  1  0  0  0
 32 25  1  0  0  0
 25 26  2  0  0  0
 26 37  1  0  0  0
 26 28  1  0  0  0
 28 39  2  0  0  0
 39 38  1  0  0  0
 38 40  1  0  0  0
 37 38  1  0  0  0
 37 41  1  0  0  0
 33 32  1  0  0  0
 34 33  1  0  0  0
 34 36  1  0  0  0
 34 35  2  0  0  0
M  END
$$$$
