1meu_ligand
  -I-interpret- 

 80 84  0  0  0  0  0  0  0  0999 V2000
   -8.9480   15.3110   27.9210 C   0  0  0  0  0
   -8.6760   17.6560   27.2240 C   0  0  0  0  0
  -10.0640   18.2430   27.2450 C   0  0  0  0  0
  -10.7080   17.9730   28.5820 C   0  0  0  0  0
  -10.9750   16.4990   28.7890 C   0  0  0  0  0
   -7.8700   15.6920   25.8380 C   0  0  0  0  0
   -8.4010   16.0210   24.4780 C   0  0  0  0  0
   -9.7730   16.1280   24.1590 C   0  0  0  0  0
  -10.1730   16.4560   22.8430 C   0  0  0  0  0
   -9.1950   16.6400   21.8460 C   0  0  0  0  0
   -7.8230   16.5290   22.1780 C   0  0  0  0  0
   -7.4350   16.2030   23.4820 C   0  0  0  0  0
   -9.5970   17.0020   20.4320 C   0  0  0  0  0
   -7.7430   18.0420   28.3950 C   0  0  0  0  0
   -6.3540   18.3110   27.8950 C   0  0  0  0  0
   -5.4370   17.2620   27.6650 C   0  0  0  0  0
   -4.1790   17.5510   27.0960 C   0  0  0  0  0
   -3.8420   18.8820   26.7590 C   0  0  0  0  0
   -4.7540   19.9340   27.0010 C   0  0  0  0  0
   -6.0140   19.6420   27.5600 C   0  0  0  0  0
  -12.0060   15.8310   27.8720 C   0  0  0  0  0
  -12.7110   14.6720   28.5480 C   0  0  0  0  0
  -13.8040   14.9400   29.4110 C   0  0  0  0  0
  -14.4640   13.8730   30.0590 C   0  0  0  0  0
  -14.0350   12.5430   29.8410 C   0  0  0  0  0
  -12.9410   12.2760   28.9840 C   0  0  0  0  0
  -12.2890   13.3390   28.3240 C   0  0  0  0  0
   -9.7870   14.7330   30.0520 C   0  0  0  0  0
   -9.8780   15.3740   31.3940 C   0  0  0  0  0
  -10.7030   14.6960   32.3090 C   0  0  0  0  0
  -10.7340   15.1090   33.6420 C   0  0  0  0  0
   -9.9590   16.2170   34.0610 C   0  0  0  0  0
   -9.1390   16.9140   33.1290 C   0  0  0  0  0
   -9.1080   16.5000   31.7760 C   0  0  0  0  0
   -9.9760   16.6140   35.5210 C   0  0  0  0  0
   -8.5810   16.2070   27.0070 N   0  0  0  0  0
   -9.8390   15.5840   28.8890 N   0  0  0  0  0
   -8.4320   14.2080   27.8780 O   0  0  0  0  0
   -9.8800   19.6180   27.0300 O   0  0  0  0  0
  -11.9580   18.6050   28.6680 O   0  0  0  0  0
   -8.6890   17.9530   19.8460 O   0  0  0  0  0
  -11.2820   16.5130   36.0970 O   0  0  0  0  0
   -8.2181   18.1094   26.3326 H   0  0  0  0  0
  -10.6831   17.8097   26.4457 H   0  0  0  0  0
  -10.0441   18.3451   29.3762 H   0  0  0  0  0
  -11.4339   16.4783   29.7885 H   0  0  0  0  0
   -7.8545   14.5955   25.9242 H   0  0  0  0  0
   -6.8412   16.0783   25.8872 H   0  0  0  0  0
  -10.5210   15.9582   24.9250 H   0  0  0  0  0
  -11.2245   16.5651   22.6031 H   0  0  0  0  0
   -7.0691   16.6976   21.4176 H   0  0  0  0  0
   -6.3837   16.0911   23.7214 H   0  0  0  0  0
  -10.6069   17.4376   20.4492 H   0  0  0  0  0
   -9.6018   16.0892   19.8182 H   0  0  0  0  0
   -7.7126   17.2160   29.1208 H   0  0  0  0  0
   -8.1326   18.9465   28.8850 H   0  0  0  0  0
   -5.6979   16.2422   27.9238 H   0  0  0  0  0
   -3.4695   16.7512   26.9169 H   0  0  0  0  0
   -2.8780   19.0969   26.3122 H   0  0  0  0  0
   -4.4867   20.9562   26.7588 H   0  0  0  0  0
   -6.7256   20.4410   27.7339 H   0  0  0  0  0
  -11.4916   15.4572   26.9744 H   0  0  0  0  0
  -12.7569   16.5797   27.5793 H   0  0  0  0  0
  -14.1317   15.9606   29.5727 H   0  0  0  0  0
  -15.2978   14.0729   30.7222 H   0  0  0  0  0
  -14.5469   11.7239   30.3330 H   0  0  0  0  0
  -12.6045   11.2564   28.8348 H   0  0  0  0  0
  -11.4671   13.1358   27.6471 H   0  0  0  0  0
   -8.8330   14.1866   30.0148 H   0  0  0  0  0
  -10.6211   14.0203   29.9730 H   0  0  0  0  0
  -11.3099   13.8595   31.9818 H   0  0  0  0  0
  -11.3528   14.5801   34.3578 H   0  0  0  0  0
   -8.5412   17.7578   33.4541 H   0  0  0  0  0
   -8.5078   17.0332   31.0476 H   0  0  0  0  0
   -9.6306   17.6547   35.6085 H   0  0  0  0  0
   -9.2932   15.9532   36.0751 H   0  0  0  0  0
  -10.7243   20.0534   27.0313 H   0  0  0  0  0
  -11.8453   19.5426   28.5649 H   0  0  0  0  0
   -8.9717   18.1559   18.9620 H   0  0  0  0  0
  -11.2448   16.7709   37.0106 H   0  0  0  0  0
  1 38  2  0  0  0
  1 37  1  0  0  0
  1 36  1  0  0  0
 36  6  1  0  0  0
 36  2  1  0  0  0
  2 14  1  0  0  0
  2  3  1  0  0  0
  3 39  1  0  0  0
  3  4  1  0  0  0
  4 40  1  0  0  0
  4  5  1  0  0  0
  5 37  1  0  0  0
  5 21  1  0  0  0
 21 22  1  0  0  0
 22 27  4  0  0  0
 22 23  4  0  0  0
 23 24  4  0  0  0
 24 25  4  0  0  0
 25 26  4  0  0  0
 26 27  4  0  0  0
 37 28  1  0  0  0
 28 29  1  0  0  0
 29 34  4  0  0  0
 29 30  4  0  0  0
 30 31  4  0  0  0
 31 32  4  0  0  0
 32 35  1  0  0  0
 32 33  4  0  0  0
 33 34  4  0  0  0
 35 42  1  0  0  0
 14 15  1  0  0  0
 15 20  4  0  0  0
 15 16  4  0  0  0
 16 17  4  0  0  0
 17 18  4  0  0  0
 18 19  4  0  0  0
 19 20  4  0  0  0
  6  7  1  0  0  0
  7 12  4  0  0  0
  7  8  4  0  0  0
  8  9  4  0  0  0
  9 10  4  0  0  0
 10 13  1  0  0  0
 10 11  4  0  0  0
 11 12  4  0  0  0
 13 41  1  0  0  0
  2 43  1  0  0  0
  3 44  1  0  0  0
  4 45  1  0  0  0
  5 46  1  0  0  0
  6 47  1  0  0  0
  6 48  1  0  0  0
  8 49  1  0  0  0
  9 50  1  0  0  0
 11 51  1  0  0  0
 12 52  1  0  0  0
 13 53  1  0  0  0
 13 54  1  0  0  0
 14 55  1  0  0  0
 14 56  1  0  0  0
 16 57  1  0  0  0
 17 58  1  0  0  0
 18 59  1  0  0  0
 19 60  1  0  0  0
 20 61  1  0  0  0
 21 62  1  0  0  0
 21 63  1  0  0  0
 23 64  1  0  0  0
 24 65  1  0  0  0
 25 66  1  0  0  0
 26 67  1  0  0  0
 27 68  1  0  0  0
 28 69  1  0  0  0
 28 70  1  0  0  0
 30 71  1  0  0  0
 31 72  1  0  0  0
 33 73  1  0  0  0
 34 74  1  0  0  0
 35 75  1  0  0  0
 35 76  1  0  0  0
 39 77  1  0  0  0
 40 78  1  0  0  0
 41 79  1  0  0  0
 42 80  1  0  0  0
M  END
$$$$
