1dqx_ligand
  -I-interpret- 

 33 34  0  0  0  0  0  0  0  0999 V2000
   80.0490   64.3350   91.8040 P   0  0  0  0  0
   80.9250   65.1530   92.7730 O   0  5  0  0  0
   80.0860   62.8370   92.0660 O   0  0  0  0  0
   80.4560   64.5890   90.3250 O   0  5  0  0  0
   78.5760   64.8470   92.1690 O   0  0  0  0  0
   77.3980   64.5600   91.3820 C   0  0  0  0  0
   76.3050   65.6320   91.5710 C   0  0  0  0  0
   75.7520   65.6260   92.8890 O   0  0  0  0  0
   76.5440   67.0730   91.0870 C   0  0  0  0  0
   75.8260   67.3200   89.9260 O   0  0  0  0  0
   75.9240   67.8750   92.1710 C   0  0  0  0  0
   75.4550   69.1580   91.9150 O   0  0  0  0  0
   75.1580   66.9050   93.0770 C   0  0  0  0  0
   74.9960   67.2140   94.5290 N   0  0  0  0  0
   76.1070   67.1640   95.5290 C   0  0  0  0  0
   77.2840   66.8750   95.3030 O   0  0  0  0  0
   75.8970   67.4190   96.8840 N   0  0  0  0  0
   74.6130   67.6670   97.3720 C   0  0  0  0  0
   74.4740   67.6100   98.5820 O   0  0  0  0  0
   73.3680   67.7500   96.3480 C   0  0  0  0  0
   73.5920   67.5190   95.0030 C   0  0  0  0  0
   72.5210   67.5800   94.1770 O   0  0  0  0  0
   76.9950   63.5834   91.6881 H   0  0  0  0  0
   77.6803   64.5234   90.3195 H   0  0  0  0  0
   75.4920   65.2759   90.9212 H   0  0  0  0  0
   77.6126   67.2940   90.9487 H   0  0  0  0  0
   75.8674   68.2466   89.7204 H   0  0  0  0  0
   76.7939   68.1251   92.7961 H   0  0  0  0  0
   76.0609   69.6059   91.3363 H   0  0  0  0  0
   74.1342   66.8617   92.6772 H   0  0  0  0  0
   76.6747   67.4242   97.5127 H   0  0  0  0  0
   72.3681   67.9841   96.7103 H   0  0  0  0  0
   71.7434   67.7841   94.6831 H   0  0  0  0  0
  1  5  1  0  0  0
  1  4  1  0  0  0
  1  3  2  0  0  0
  1  2  1  0  0  0
  5  6  1  0  0  0
  6  7  1  0  0  0
  7  9  1  0  0  0
  7  8  1  0  0  0
  8 13  1  0  0  0
 13 14  1  0  0  0
 13 11  1  0  0  0
 11 12  1  0  0  0
 11  9  1  0  0  0
  9 10  1  0  0  0
 14 21  1  0  0  0
 14 15  1  0  0  0
 15 17  1  0  0  0
 15 16  2  0  0  0
 17 18  1  0  0  0
 18 20  1  0  0  0
 18 19  2  0  0  0
 20 21  2  0  0  0
 21 22  1  0  0  0
  6 23  1  0  0  0
  6 24  1  0  0  0
  7 25  1  0  0  0
  9 26  1  0  0  0
 10 27  1  0  0  0
 11 28  1  0  0  0
 12 29  1  0  0  0
 13 30  1  0  0  0
 17 31  1  0  0  0
 20 32  1  0  0  0
 22 33  1  0  0  0
M  END
$$$$
