### 
### Created by X-TOOL on Mon Oct 24 22:39:38 2005
### 

@<TRIPOS>MOLECULE
1lkl_ligand
   68    68     1     0     0
SMALL
GAST_HUCK


@<TRIPOS>ATOM
      1 CA         28.9270   -4.9240   -3.5800 C.3       1 SUB1        0.026
      2 C          28.7210   -4.0850   -2.3300 C.2       1 SUB1        0.175
      3 O          29.1730   -4.4970   -1.2560 O.2       1 SUB1       -0.397
      4 N          28.0400   -2.9510   -2.4390 N.am      1 SUB1       -0.264
      5 CA         27.8080   -2.0810   -1.3080 C.3       1 SUB1        0.138
      6 C          26.3360   -1.9770   -0.9450 C.2       1 SUB1        0.206
      7 O          25.4560   -2.0900   -1.8050 O.2       1 SUB1       -0.394
      8 CB         28.3570   -0.6790   -1.5930 C.3       1 SUB1       -0.000
      9 CG         29.8720   -0.6260   -1.6670 C.ar      1 SUB1       -0.145
     10 CD1        30.6320   -0.5030   -0.5070 C.ar      1 SUB1       -0.179
     11 CD2        30.5390   -0.6550   -2.8980 C.ar      1 SUB1       -0.179
     12 CE1        32.0190   -0.3960   -0.5570 C.ar      1 SUB1       -0.140
     13 CE2        31.9370   -0.5530   -2.9630 C.ar      1 SUB1       -0.140
     14 CZ         32.6650   -0.4180   -1.7850 C.ar      1 SUB1        0.074
     15 OH         34.0280   -0.2590   -1.8330 O.3       1 SUB1       -0.110
     16 N          26.0940   -1.8170    0.3480 N.am      1 SUB1       -0.263
     17 CA         24.7690   -1.6400    0.8820 C.3       1 SUB1        0.134
     18 C          24.5470   -0.1420    0.9410 C.2       1 SUB1        0.204
     19 O          25.5030    0.6280    0.9760 O.2       1 SUB1       -0.394
     20 CB         24.6900   -2.2320    2.2880 C.3       1 SUB1       -0.001
     21 CG         24.3020   -3.6800    2.2990 C.3       1 SUB1       -0.010
     22 CD         22.8800   -3.8910    1.7910 C.2       1 SUB1        0.028
     23 OE1        21.9330   -3.3720    2.4300 O.co2     1 SUB1       -0.567
     24 OE2        22.7120   -4.5650    0.7560 O.co2     1 SUB1       -0.567
     25 N          23.2860    0.2700    0.9080 N.am      1 SUB1       -0.263
     26 CA         22.9300    1.6800    0.9760 C.3       1 SUB1        0.134
     27 C          22.3670    1.9390    2.3690 C.2       1 SUB1        0.205
     28 O          21.6290    1.1040    2.9040 O.2       1 SUB1       -0.394
     29 CB         21.8400    2.0020   -0.0500 C.3       1 SUB1       -0.001
     30 CG         22.2220    1.7210   -1.4920 C.3       1 SUB1       -0.010
     31 CD         23.2090    2.7330   -2.0560 C.2       1 SUB1        0.028
     32 OE1        23.1180    3.9320   -1.6970 O.co2     1 SUB1       -0.567
     33 OE2        24.0630    2.3370   -2.8870 O.co2     1 SUB1       -0.567
     34 N          22.7010    3.0930    2.9330 N.am      1 SUB1       -0.271
     35 CA         22.2100    3.4680    4.2470 C.3       1 SUB1        0.070
     36 C          21.1600    4.5540    4.0960 C.2       1 SUB1        0.050
     37 O          20.3850    4.4870    3.1110 O.co2     1 SUB1       -0.564
     38 OXT        21.1310    5.4880    4.9270 O.co2     1 SUB1       -0.564
     39 P          35.0920   -1.4330   -1.5510 P.3       1 SUB1        0.476
     40 O1P        35.6000   -1.9870   -2.8210 O.co2     1 SUB1       -0.376
     41 O2P        34.4900   -2.4960   -0.7480 O.co2     1 SUB1       -0.376
     42 O3P        36.1150   -0.7100   -0.7650 O.co2     1 SUB1       -0.376
     43 H11        27.9492   -5.2010   -4.0009 H         1 SUB1        0.047
     44 H12        29.4865   -5.8352   -3.3219 H         1 SUB1        0.047
     45 H13        29.4944   -4.3432   -4.3221 H         1 SUB1        0.047
     46 H41        27.6754   -2.6898   -3.3328 H         1 SUB1        0.188
     47 H51        28.3452   -2.4989   -0.4438 H         1 SUB1        0.082
     48 H81        28.0238   -0.0047   -0.7903 H         1 SUB1        0.044
     49 H82        27.9491   -0.3341   -2.5546 H         1 SUB1        0.044
     50 H101       30.1332   -0.4903    0.4553 H         1 SUB1       -0.021
     51 H111       29.9674   -0.7577   -3.8133 H         1 SUB1       -0.021
     52 H121       32.5913   -0.2960    0.3582 H         1 SUB1       -0.018
     53 H131       32.4443   -0.5791   -3.9206 H         1 SUB1       -0.018
     54 H161       26.8674   -1.8193    0.9819 H         1 SUB1        0.188
     55 H171       24.0213   -2.1187    0.2325 H         1 SUB1        0.080
     56 H201       23.9434   -1.6658    2.8641 H         1 SUB1        0.035
     57 H202       25.6756   -2.1307    2.7658 H         1 SUB1        0.035
     58 H211       24.3715   -4.0591    3.3293 H         1 SUB1        0.049
     59 H212       24.9965   -4.2393    1.6549 H         1 SUB1        0.049
     60 H251       22.5566   -0.4101    0.8340 H         1 SUB1        0.188
     61 H261       23.8163    2.3054    0.7934 H         1 SUB1        0.080
     62 H291       21.5928    3.0703    0.0368 H         1 SUB1        0.035
     63 H292       20.9523    1.3994    0.1928 H         1 SUB1        0.035
     64 H301       21.3098    1.7418   -2.1063 H         1 SUB1        0.049
     65 H302       22.6770    0.7210   -1.5452 H         1 SUB1        0.049
     66 H341       23.3055    3.7195    2.4410 H         1 SUB1        0.190
     67 H351       21.7637    2.5903    4.7373 H         1 SUB1        0.074
     68 H352       23.0438    3.8446    4.8577 H         1 SUB1        0.074
@<TRIPOS>BOND
     1    2    1 1  
     2    2    3 2  
     3    5    6 1  
     4    8    5 1  
     5    5    4 1  
     6    9    8 1  
     7   11    9 ar 
     8   10    9 ar 
     9   12   10 ar 
    10   14   12 ar 
    11   15   14 1  
    12   14   13 ar 
    13   13   11 ar 
    14    6    7 2  
    15   17   18 1  
    16   17   20 1  
    17   16   17 1  
    18   20   21 1  
    19   21   22 1  
    20   22   23 2  
    21   22   24 2  
    22   18   19 2  
    23   26   27 1  
    24   26   29 1  
    25   25   26 1  
    26   29   30 1  
    27   30   31 1  
    28   31   32 2  
    29   31   33 2  
    30   27   28 2  
    31   35   36 1  
    32   34   35 1  
    33   36   38 2  
    34   36   37 2  
    35   39   42 2  
    36   39   41 2  
    37   39   40 2  
    38    4    2 am 
    39    6   16 am 
    40   18   25 am 
    41   27   34 am 
    42   15   39 1  
    43    1   43 1  
    44    1   44 1  
    45    1   45 1  
    46    4   46 1  
    47    5   47 1  
    48    8   48 1  
    49    8   49 1  
    50   10   50 1  
    51   11   51 1  
    52   12   52 1  
    53   13   53 1  
    54   16   54 1  
    55   17   55 1  
    56   20   56 1  
    57   20   57 1  
    58   21   58 1  
    59   21   59 1  
    60   25   60 1  
    61   26   61 1  
    62   29   62 1  
    63   29   63 1  
    64   30   64 1  
    65   30   65 1  
    66   34   66 1  
    67   35   67 1  
    68   35   68 1  
@<TRIPOS>SUBSTRUCTURE
     1 SUB1        1 GROUP

