### 
### Created by X-TOOL on Mon Oct 24 23:07:03 2005
### 

@<TRIPOS>MOLECULE
1f4e_ligand
   32    33     1     0     0
SMALL
GAST_HUCK


@<TRIPOS>ATOM
      1 H151       38.0645   62.0172   78.1332 H         1 SUB1        0.056
      2 H171       38.5997   57.7572   77.9029 H         1 SUB1        0.056
      3 H181       37.7647   57.5112   80.2347 H         1 SUB1        0.062
      4 H201       37.2400   61.7713   80.4632 H         1 SUB1        0.062
      5 H211       38.9107   61.0607   76.1206 H         1 SUB1        0.039
      6 H212       38.2554   59.4269   75.7631 H         1 SUB1        0.039
      7 H213       39.9316   59.6063   76.3835 H         1 SUB1        0.039
      8 H261       35.2652   59.9544   80.0288 H         1 SUB1        0.048
      9 H262       34.0387   61.0098   80.8089 H         1 SUB1        0.048
     10 H271       33.9093   58.0308   80.1995 H         1 SUB1        0.028
     11 H272       32.6166   59.2725   80.0820 H         1 SUB1        0.028
     12 H281       32.7244   57.5612   82.1981 H         1 SUB1        0.032
     13 H282       32.2206   59.2713   82.4176 H         1 SUB1        0.032
     14 H291       34.8242   57.9109   83.1026 H         1 SUB1        0.073
     15 C1         38.0050   61.0350   78.5880 C.ar      1 SUB1       -0.059
     16 C2         38.3900   59.9010   77.8630 C.ar      1 SUB1       -0.046
     17 C3         38.3030   58.6360   78.4640 C.ar      1 SUB1       -0.059
     18 C4         37.8390   58.4910   79.7770 C.ar      1 SUB1       -0.042
     19 C5         37.4760   59.6340   80.4790 C.ar      1 SUB1        0.102
     20 C6         37.5440   60.8970   79.8990 C.ar      1 SUB1       -0.042
     21 C7         38.9080   60.0060   76.4330 C.3       1 SUB1       -0.031
     22 S8         36.8630   59.5010   82.1190 S.o2      1 SUB1        0.070
     23 O9         37.4950   60.6150   83.0490 O.2       1 SUB1       -0.151
     24 O10        37.2030   58.0690   82.7100 O.2       1 SUB1       -0.151
     25 N          35.1210   59.7520   82.1440 N.am      1 SUB1       -0.218
     26 CD         34.5120   60.0170   80.8280 C.3       1 SUB1        0.034
     27 CG         33.4720   58.9200   80.6770 C.3       1 SUB1       -0.031
     28 CB         33.0440   58.6100   82.1100 C.3       1 SUB1       -0.020
     29 CA         34.2970   58.8680   82.9760 C.3       1 SUB1        0.080
     30 C          34.0590   59.4180   84.3980 C.2       1 SUB1        0.050
     31 O          33.8350   58.6810   85.3640 O.co2     1 SUB1       -0.565
     32 OXT        34.1160   60.7720   84.5760 O.co2     1 SUB1       -0.565
@<TRIPOS>BOND
     1   15    1 1  
     2   17    2 1  
     3   18    3 1  
     4   20    4 1  
     5   21    5 1  
     6   21    6 1  
     7   21    7 1  
     8   26    8 1  
     9   26    9 1  
    10   27   10 1  
    11   27   11 1  
    12   28   12 1  
    13   28   13 1  
    14   29   14 1  
    15   20   15 ar 
    16   15   16 ar 
    17   16   21 1  
    18   17   16 ar 
    19   18   17 ar 
    20   19   18 ar 
    21   22   19 1  
    22   19   20 ar 
    23   25   22 1  
    24   22   24 2  
    25   22   23 2  
    26   25   29 1  
    27   26   25 1  
    28   27   26 1  
    29   27   28 1  
    30   28   29 1  
    31   29   30 1  
    32   30   32 2  
    33   30   31 2  
@<TRIPOS>SUBSTRUCTURE
     1 SUB1        1 GROUP

