1f4e_ligand
  -I-interpret- 

 32 33  0  0  0  0  0  0  0  0999 V2000
   38.0645   62.0172   78.1332 H   0  0  0  0  0
   38.5997   57.7572   77.9029 H   0  0  0  0  0
   37.7647   57.5112   80.2347 H   0  0  0  0  0
   37.2400   61.7713   80.4632 H   0  0  0  0  0
   38.9107   61.0607   76.1206 H   0  0  0  0  0
   38.2554   59.4269   75.7631 H   0  0  0  0  0
   39.9316   59.6063   76.3835 H   0  0  0  0  0
   35.2652   59.9544   80.0288 H   0  0  0  0  0
   34.0387   61.0098   80.8089 H   0  0  0  0  0
   33.9093   58.0308   80.1995 H   0  0  0  0  0
   32.6166   59.2725   80.0820 H   0  0  0  0  0
   32.7244   57.5612   82.1981 H   0  0  0  0  0
   32.2206   59.2713   82.4176 H   0  0  0  0  0
   34.8242   57.9109   83.1026 H   0  0  0  0  0
   38.0050   61.0350   78.5880 C   0  0  0  0  0
   38.3900   59.9010   77.8630 C   0  0  0  0  0
   38.3030   58.6360   78.4640 C   0  0  0  0  0
   37.8390   58.4910   79.7770 C   0  0  0  0  0
   37.4760   59.6340   80.4790 C   0  0  0  0  0
   37.5440   60.8970   79.8990 C   0  0  0  0  0
   38.9080   60.0060   76.4330 C   0  0  0  0  0
   36.8630   59.5010   82.1190 S   0  0  0  0  0
   37.4950   60.6150   83.0490 O   0  0  0  0  0
   37.2030   58.0690   82.7100 O   0  0  0  0  0
   35.1210   59.7520   82.1440 N   0  0  0  0  0
   34.5120   60.0170   80.8280 C   0  0  0  0  0
   33.4720   58.9200   80.6770 C   0  0  0  0  0
   33.0440   58.6100   82.1100 C   0  0  0  0  0
   34.2970   58.8680   82.9760 C   0  0  0  0  0
   34.0590   59.4180   84.3980 C   0  0  0  0  0
   33.8350   58.6810   85.3640 O   0  0  0  0  0
   34.1160   60.7720   84.5760 O   0  5  0  0  0
 15  1  1  0  0  0
 17  2  1  0  0  0
 18  3  1  0  0  0
 20  4  1  0  0  0
 21  5  1  0  0  0
 21  6  1  0  0  0
 21  7  1  0  0  0
 26  8  1  0  0  0
 26  9  1  0  0  0
 27 10  1  0  0  0
 27 11  1  0  0  0
 28 12  1  0  0  0
 28 13  1  0  0  0
 29 14  1  0  0  0
 20 15  4  0  0  0
 15 16  4  0  0  0
 16 21  1  0  0  0
 17 16  4  0  0  0
 18 17  4  0  0  0
 19 18  4  0  0  0
 22 19  1  0  0  0
 19 20  4  0  0  0
 25 22  1  0  0  0
 22 24  2  0  0  0
 22 23  2  0  0  0
 25 29  1  0  0  0
 26 25  1  0  0  0
 27 26  1  0  0  0
 27 28  1  0  0  0
 28 29  1  0  0  0
 29 30  1  0  0  0
 30 32  1  0  0  0
 30 31  2  0  0  0
M  END
$$$$
