### 
### Created by X-TOOL on Tue Oct 25 02:03:47 2005
### 

@<TRIPOS>MOLECULE
1tog_ligand
   20    20     1     0     0
SMALL
GAST_HUCK


@<TRIPOS>ATOM
      1 C1         47.5630   92.4530  -14.4790 C.2       1 SUB1        0.030
      2 O1         47.8650   92.0740  -15.6190 O.co2     1 SUB1       -0.566
      3 O2         46.3170   92.8790  -14.2670 O.co2     1 SUB1       -0.566
      4 C2         48.5460   92.4760  -13.3110 C.3       1 SUB1       -0.004
      5 C3         49.2800   91.1500  -13.0290 C.3       1 SUB1       -0.008
      6 C1'        48.4030   90.1070  -12.3430 C.ar      1 SUB1       -0.040
      7 C2'        48.5420   89.8480  -10.9770 C.ar      1 SUB1       -0.060
      8 C3'        47.7520   88.8680  -10.3700 C.ar      1 SUB1       -0.069
      9 C4'        46.8060   88.1360  -11.1090 C.ar      1 SUB1       -0.069
     10 C5'        46.6410   88.4030  -12.4770 C.ar      1 SUB1       -0.069
     11 C6'        47.4560   89.3810  -13.0780 C.ar      1 SUB1       -0.060
     12 H41        47.9875   92.7525  -12.4046 H         1 SUB1        0.051
     13 H42        49.3047   93.2438  -13.5228 H         1 SUB1        0.051
     14 H51        50.1436   91.3603  -12.3810 H         1 SUB1        0.046
     15 H52        49.6315   90.7356  -13.9854 H         1 SUB1        0.046
     16 H71        49.2615   90.4063  -10.3890 H         1 SUB1        0.056
     17 H81        47.8706   88.6687   -9.3111 H         1 SUB1        0.060
     18 H91        46.2086   87.3713  -10.6259 H         1 SUB1        0.056
     19 H101       45.9005   87.8667  -13.0594 H         1 SUB1        0.060
     20 H111       47.3481   89.5779  -14.1385 H         1 SUB1        0.056
@<TRIPOS>BOND
     1    1    2 2  
     2    1    3 2  
     3    1    4 1  
     4    4    5 1  
     5    5    6 1  
     6    6    7 ar 
     7    6   11 ar 
     8    7    8 ar 
     9    8    9 ar 
    10    9   10 ar 
    11   10   11 ar 
    12    4   12 1  
    13    4   13 1  
    14    5   14 1  
    15    5   15 1  
    16    7   16 1  
    17    8   17 1  
    18    9   18 1  
    19   10   19 1  
    20   11   20 1  
@<TRIPOS>SUBSTRUCTURE
     1 SUB1        1 GROUP

