1tog_ligand
  -I-interpret- 

 20 20  0  0  0  0  0  0  0  0999 V2000
   47.5630   92.4530  -14.4790 C   0  0  0  0  0
   47.8650   92.0740  -15.6190 O   0  0  0  0  0
   46.3170   92.8790  -14.2670 O   0  5  0  0  0
   48.5460   92.4760  -13.3110 C   0  0  0  0  0
   49.2800   91.1500  -13.0290 C   0  0  0  0  0
   48.4030   90.1070  -12.3430 C   0  0  0  0  0
   48.5420   89.8480  -10.9770 C   0  0  0  0  0
   47.7520   88.8680  -10.3700 C   0  0  0  0  0
   46.8060   88.1360  -11.1090 C   0  0  0  0  0
   46.6410   88.4030  -12.4770 C   0  0  0  0  0
   47.4560   89.3810  -13.0780 C   0  0  0  0  0
   47.9875   92.7525  -12.4046 H   0  0  0  0  0
   49.3047   93.2438  -13.5228 H   0  0  0  0  0
   50.1436   91.3603  -12.3810 H   0  0  0  0  0
   49.6315   90.7356  -13.9854 H   0  0  0  0  0
   49.2615   90.4063  -10.3890 H   0  0  0  0  0
   47.8706   88.6687   -9.3111 H   0  0  0  0  0
   46.2086   87.3713  -10.6259 H   0  0  0  0  0
   45.9005   87.8667  -13.0594 H   0  0  0  0  0
   47.3481   89.5779  -14.1385 H   0  0  0  0  0
  1  2  2  0  0  0
  1  3  1  0  0  0
  1  4  1  0  0  0
  4  5  1  0  0  0
  5  6  1  0  0  0
  6  7  4  0  0  0
  6 11  4  0  0  0
  7  8  4  0  0  0
  8  9  4  0  0  0
  9 10  4  0  0  0
 10 11  4  0  0  0
  4 12  1  0  0  0
  4 13  1  0  0  0
  5 14  1  0  0  0
  5 15  1  0  0  0
  7 16  1  0  0  0
  8 17  1  0  0  0
  9 18  1  0  0  0
 10 19  1  0  0  0
 11 20  1  0  0  0
M  END
$$$$
