### 
### Created by X-TOOL on Mon Oct 24 22:41:38 2005
### 

@<TRIPOS>MOLECULE
1ejn_ligand
   53    56     1     0     0
SMALL
GAST_HUCK


@<TRIPOS>ATOM
      1 H61        22.2315   11.2985   26.0664 H         1 SUB1        0.030
      2 H71        21.8258   13.2827   27.5546 H         1 SUB1        0.027
      3 H72        23.5060   13.2853   26.9193 H         1 SUB1        0.027
      4 H81        24.7119   11.0752   26.4909 H         1 SUB1        0.029
      5 H82        23.8576    9.5200   26.7703 H         1 SUB1        0.029
      6 C1         22.6160   11.2980   27.0970 C.3       1 SUB1       -0.038
      7 C2         22.7960   12.7650   27.5790 C.3       1 SUB1       -0.047
      8 C3         23.9920   10.5490   27.1350 C.3       1 SUB1       -0.024
      9 C4         21.6000   10.5700   28.0280 C.3       1 SUB1       -0.047
     10 C5         22.3300   12.0400   29.9730 C.3       1 SUB1       -0.047
     11 C6         23.3450   12.7570   29.0310 C.3       1 SUB1       -0.038
     12 C7         22.1400   10.5700   29.4910 C.3       1 SUB1       -0.038
     13 C8         24.7070   12.0000   29.0690 C.3       1 SUB1       -0.024
     14 C9         23.5050    9.8130   29.5460 C.3       1 SUB1       -0.024
     15 C10        24.5380   10.5130   28.6040 C.3       1 SUB1        0.054
     16 N1         27.2030    8.0200   29.0940 N.am      1 SUB1       -0.264
     17 C12        26.0830    8.5320   28.5490 C.2       1 SUB1        0.259
     18 N2         25.8560    9.8630   28.7070 N.am      1 SUB1       -0.267
     19 O1         25.3160    7.7840   27.9360 O.2       1 SUB1       -0.401
     20 C11        27.5820    6.6420   28.8350 C.3       1 SUB1        0.059
     21 C13        29.7790    5.4990   29.3810 C.ar      1 SUB1       -0.070
     22 C14        29.0900    6.4880   28.6600 C.ar      1 SUB1       -0.034
     23 C15        29.7990    7.3260   27.7680 C.ar      1 SUB1       -0.070
     24 C16        31.1620    7.0740   27.5100 C.ar      1 SUB1       -0.047
     25 C17        31.7920    5.9960   28.1480 C.ar      1 SUB1        0.079
     26 C18        31.1050    5.2080   29.0770 C.ar      1 SUB1       -0.047
     27 N3         33.1960    5.8990   27.6390 N.pl3     1 SUB1       -0.120
     28 N4         33.2340    3.4270   27.5260 N.pl3     1 SUB1       -0.180
     29 C19        33.5800    4.6700   27.5130 C.cat     1 SUB1        0.406
     30 N5         34.8510    4.8760   27.2810 N.pl3     1 SUB1       -0.180
     31 H91        21.4681    9.5328   27.6863 H         1 SUB1        0.027
     32 H92        20.6328   11.0929   27.9946 H         1 SUB1        0.027
     33 H101       21.3642   12.5656   29.9426 H         1 SUB1        0.027
     34 H102       22.7170   12.0432   31.0027 H         1 SUB1        0.027
     35 H111       23.4917   13.7926   29.3716 H         1 SUB1        0.030
     36 H121       21.4169   10.0628   30.1466 H         1 SUB1        0.030
     37 H131       25.0968   12.0128   30.0975 H         1 SUB1        0.029
     38 H132       25.4187   12.5068   28.4008 H         1 SUB1        0.029
     39 H141       23.8865    9.8229   30.5777 H         1 SUB1        0.029
     40 H142       23.3590    8.7729   29.2190 H         1 SUB1        0.029
     41 H161       27.7769    8.5917   29.6803 H         1 SUB1        0.187
     42 H181       26.6437   10.4452   28.9085 H         1 SUB1        0.185
     43 H201       27.0813    6.3024   27.9163 H         1 SUB1        0.065
     44 H202       27.2572    6.0191   29.6814 H         1 SUB1        0.065
     45 H211       29.2762    4.9610   30.1765 H         1 SUB1        0.052
     46 H231       29.2974    8.1571   27.2856 H         1 SUB1        0.052
     47 H241       31.7166    7.7064   26.8262 H         1 SUB1        0.050
     48 H261       31.6035    4.3742   29.5580 H         1 SUB1        0.050
     49 H271       33.7860    6.7132   27.4157 H         1 SUB1        0.234
     50 H281       33.9388    2.6945   27.3599 H         1 SUB1        0.195
     51 H282       32.2530    3.1673   27.7025 H         1 SUB1        0.195
     52 H301       35.2200    5.8372   27.2517 H         1 SUB1        0.195
     53 H302       35.4826    4.0770   27.1276 H         1 SUB1        0.195
@<TRIPOS>BOND
     1    6    1 1  
     2    7    2 1  
     3    7    3 1  
     4    8    4 1  
     5    6    9 1  
     6    6    8 1  
     7    6    7 1  
     8    7   11 1  
     9   11   10 1  
    10   11   13 1  
    11   13   15 1  
    12   15   18 1  
    13   15   14 1  
    14   15    8 1  
    15   14   12 1  
    16   12   10 1  
    17   12    9 1  
    18   18   17 am 
    19   17   19 2  
    20   17   16 am 
    21   16   20 1  
    22   20   22 1  
    23   22   21 ar 
    24   22   23 ar 
    25   23   24 ar 
    26   24   25 ar 
    27   25   27 1  
    28   25   26 ar 
    29   26   21 ar 
    30   27   29 1  
    31   29   28 1  
    32   29   30 1  
    33    8    5 1  
    34    9   31 1  
    35    9   32 1  
    36   10   33 1  
    37   10   34 1  
    38   11   35 1  
    39   12   36 1  
    40   13   37 1  
    41   13   38 1  
    42   14   39 1  
    43   14   40 1  
    44   16   41 1  
    45   18   42 1  
    46   20   43 1  
    47   20   44 1  
    48   21   45 1  
    49   23   46 1  
    50   24   47 1  
    51   26   48 1  
    52   27   49 1  
    53   28   50 1  
    54   28   51 1  
    55   30   52 1  
    56   30   53 1  
@<TRIPOS>SUBSTRUCTURE
     1 SUB1        1 GROUP

