### 
### Created by X-TOOL on Tue Oct 25 01:53:46 2005
### 

@<TRIPOS>MOLECULE
1upf_ligand
   12    12     1     0     0
SMALL
GAST_HUCK


@<TRIPOS>ATOM
      1 H51         8.1538   93.7455   45.4758 H         1 SUB1        0.241
      2 H71        10.7070   94.7696   48.4667 H         1 SUB1        0.226
      3 H101        8.3965   95.8974   44.4454 H         1 SUB1        0.110
      4 F5          9.8990   97.7430   45.3080 F         1 SUB1       -0.216
      5 N1          8.7720   94.3980   45.9140 N.am      1 SUB1       -0.207
      6 C2          9.4500   94.0250   47.0640 C.2       1 SUB1        0.325
      7 N3         10.2450   94.9990   47.6100 N.am      1 SUB1       -0.184
      8 C4         10.4780   96.2710   47.1010 C.2       1 SUB1        0.221
      9 C5          9.7250   96.5840   45.9070 C.2       1 SUB1        0.193
     10 C6          8.9340   95.6550   45.3610 C.2       1 SUB1        0.082
     11 O2          9.3310   92.9390   47.6030 O.2       1 SUB1       -0.383
     12 O4         11.2350   97.0530   47.6930 O.2       1 SUB1       -0.407
@<TRIPOS>BOND
     1    5    1 1  
     2    7    2 1  
     3    9    4 1  
     4   10    3 1  
     5    5   10 am 
     6    6    5 am 
     7    6   11 2  
     8    7    6 am 
     9    8    7 am 
    10    8   12 2  
    11    8    9 1  
    12    9   10 2  
@<TRIPOS>SUBSTRUCTURE
     1 SUB1        1 GROUP

