1upf_ligand
  -I-interpret- 

 12 12  0  0  0  0  0  0  0  0999 V2000
    8.1538   93.7455   45.4758 H   0  0  0  0  0
   10.7070   94.7696   48.4667 H   0  0  0  0  0
    8.3965   95.8974   44.4454 H   0  0  0  0  0
    9.8990   97.7430   45.3080 F   0  0  0  0  0
    8.7720   94.3980   45.9140 N   0  0  0  0  0
    9.4500   94.0250   47.0640 C   0  0  0  0  0
   10.2450   94.9990   47.6100 N   0  0  0  0  0
   10.4780   96.2710   47.1010 C   0  0  0  0  0
    9.7250   96.5840   45.9070 C   0  0  0  0  0
    8.9340   95.6550   45.3610 C   0  0  0  0  0
    9.3310   92.9390   47.6030 O   0  0  0  0  0
   11.2350   97.0530   47.6930 O   0  0  0  0  0
  5  1  1  0  0  0
  7  2  1  0  0  0
  9  4  1  0  0  0
 10  3  1  0  0  0
  5 10  1  0  0  0
  6  5  1  0  0  0
  6 11  2  0  0  0
  7  6  1  0  0  0
  8  7  1  0  0  0
  8 12  2  0  0  0
  8  9  1  0  0  0
  9 10  2  0  0  0
M  END
$$$$
