1d9i_ligand
  -I-interpret- 

 63 66  0  0  0  0  0  0  0  0999 V2000
   15.4639  -12.1787   22.3710 H   0  0  0  0  0
   14.6182  -11.7650   19.5716 H   0  0  0  0  0
   15.0263  -10.3345   20.5785 H   0  0  0  0  0
   12.6208  -10.5886   20.4410 H   0  0  0  0  0
   13.1084  -13.4603   21.2600 H   0  0  0  0  0
   12.1656  -12.8000   19.8809 H   0  0  0  0  0
   10.7420  -13.8559   21.7072 H   0  0  0  0  0
   10.3330  -12.1395   21.3702 H   0  0  0  0  0
   12.3010  -13.0001   23.5418 H   0  0  0  0  0
   11.7581  -10.5947   24.3097 H   0  0  0  0  0
   10.8927  -10.3903   22.7489 H   0  0  0  0  0
   13.2243   -9.6083   22.4698 H   0  0  0  0  0
   13.8596  -11.1454   23.1482 H   0  0  0  0  0
   10.1730  -13.8411   24.1112 H   0  0  0  0  0
    9.4795  -12.3588   23.9344 H   0  0  0  0  0
   10.6046  -12.6061   25.1102 H   0  0  0  0  0
   15.5640  -12.1770   21.3760 N   0  0  0  0  0
   14.6340  -11.3620   20.5950 C   0  0  0  0  0
   13.1470  -11.2940   21.1010 C   0  0  0  0  0
   12.4150  -12.6670   20.9440 C   0  0  0  0  0
   11.1010  -12.8180   21.7700 C   0  0  0  0  0
   11.3930  -12.4610   23.2340 C   0  0  0  0  0
   11.6930  -10.9390   23.2670 C   0  0  0  0  0
   13.0620  -10.6940   22.5400 C   0  0  0  0  0
   10.3290  -12.8470   24.1710 N   0  3  0  0  0
   17.3710  -16.9340   24.3950 C   0  0  0  0  0
   17.9450  -15.9540   23.4870 N   0  0  0  0  0
   19.0400  -16.1960   22.6510 C   0  0  0  0  0
   19.7450  -17.2000   22.5880 O   0  0  0  0  0
   19.2010  -15.0530   21.8590 N   0  0  0  0  0
   18.2070  -14.1460   22.2110 N   0  0  0  0  0
   17.4300  -14.6990   23.2110 C   0  0  0  0  0
   16.4570  -14.1480   23.6930 O   0  0  0  0  0
   20.4440  -14.5980   21.2530 C   0  0  0  0  0
   20.1380  -13.4830   20.2800 C   0  0  0  0  0
   19.0090  -12.7640   20.4130 C   0  0  0  0  0
   17.9940  -12.8890   21.5140 C   0  0  0  0  0
   16.5950  -12.9620   20.8130 C   0  0  0  0  0
   16.3630  -13.7750   19.9310 O   0  0  0  0  0
   16.9020  -16.4020   25.7390 C   0  0  0  0  0
   18.2030  -17.0280   26.7510 S   0  0  0  0  0
   17.9480  -16.9120   28.1580 O   0  0  0  0  0
   18.5360  -18.3710   26.2200 O   0  0  0  0  0
   19.7060  -16.1130   26.4360 C   0  0  0  0  0
   20.2580  -15.3020   27.4200 C   0  0  0  0  0
   21.4520  -14.6360   27.1510 C   0  0  0  0  0
   22.0830  -14.7810   25.9190 C   0  0  0  0  0
   21.5350  -15.5990   24.9340 C   0  0  0  0  0
   20.3480  -16.2710   25.2010 C   0  0  0  0  0
   18.1334  -17.7038   24.5852 H   0  0  0  0  0
   16.5054  -17.3912   23.8934 H   0  0  0  0  0
   20.9211  -15.4329   20.7188 H   0  0  0  0  0
   21.1223  -14.2282   22.0360 H   0  0  0  0  0
   20.8320  -13.2614   19.4706 H   0  0  0  0  0
   18.8107  -12.0166   19.6462 H   0  0  0  0  0
   18.0528  -12.0387   22.2093 H   0  0  0  0  0
   16.8588  -15.3030   25.7554 H   0  0  0  0  0
   15.9224  -16.8118   26.0259 H   0  0  0  0  0
   19.7682  -15.1894   28.3804 H   0  0  0  0  0
   21.8937  -13.9988   27.9086 H   0  0  0  0  0
   23.0092  -14.2526   25.7244 H   0  0  0  0  0
   22.0265  -15.7098   23.9742 H   0  0  0  0  0
   19.9163  -16.9214   24.4489 H   0  0  0  0  0
 17  1  1  0  0  0
 18  2  1  0  0  0
 18  3  1  0  0  0
 19  4  1  0  0  0
 20  5  1  0  0  0
 20  6  1  0  0  0
 21  7  1  0  0  0
 21  8  1  0  0  0
 22  9  1  0  0  0
 23 10  1  0  0  0
 23 11  1  0  0  0
 24 12  1  0  0  0
 24 13  1  0  0  0
 25 14  1  0  0  0
 25 15  1  0  0  0
 25 16  1  0  0  0
 17 18  1  0  0  0
 18 19  1  0  0  0
 19 24  1  0  0  0
 19 20  1  0  0  0
 20 21  1  0  0  0
 21 22  1  0  0  0
 22 25  1  0  0  0
 23 22  1  0  0  0
 24 23  1  0  0  0
 27 26  1  0  0  0
 32 27  1  0  0  0
 27 28  1  0  0  0
 30 28  1  0  0  0
 28 29  2  0  0  0
 30 34  1  0  0  0
 31 30  1  0  0  0
 37 31  1  0  0  0
 31 32  1  0  0  0
 32 33  2  0  0  0
 38 37  1  0  0  0
 37 36  1  0  0  0
 36 35  2  0  0  0
 35 34  1  0  0  0
 38 39  2  0  0  0
 40 41  1  0  0  0
 41 44  1  0  0  0
 41 43  2  0  0  0
 41 42  2  0  0  0
 44 49  4  0  0  0
 44 45  4  0  0  0
 45 46  4  0  0  0
 46 47  4  0  0  0
 48 47  4  0  0  0
 49 48  4  0  0  0
 26 40  1  0  0  0
 38 17  1  0  0  0
 26 50  1  0  0  0
 26 51  1  0  0  0
 34 52  1  0  0  0
 34 53  1  0  0  0
 35 54  1  0  0  0
 36 55  1  0  0  0
 37 56  1  0  0  0
 40 57  1  0  0  0
 40 58  1  0  0  0
 45 59  1  0  0  0
 46 60  1  0  0  0
 47 61  1  0  0  0
 48 62  1  0  0  0
 49 63  1  0  0  0
M  END
$$$$
