### 
### Created by X-TOOL on Tue Oct 25 01:55:09 2005
### 

@<TRIPOS>MOLECULE
1d9i_ligand
   63    66     1     0     0
SMALL
GAST_HUCK


@<TRIPOS>ATOM
      1 H171       15.4639  -12.1787   22.3710 H         1 SUB1        0.185
      2 H181       14.6182  -11.7650   19.5716 H         1 SUB1        0.052
      3 H182       15.0263  -10.3345   20.5785 H         1 SUB1        0.052
      4 H191       12.6208  -10.5886   20.4410 H         1 SUB1        0.032
      5 H201       13.1084  -13.4603   21.2600 H         1 SUB1        0.027
      6 H202       12.1656  -12.8000   19.8809 H         1 SUB1        0.027
      7 H211       10.7420  -13.8559   21.7072 H         1 SUB1        0.032
      8 H212       10.3330  -12.1395   21.3702 H         1 SUB1        0.032
      9 H221       12.3010  -13.0001   23.5418 H         1 SUB1        0.085
     10 H231       11.7581  -10.5947   24.3097 H         1 SUB1        0.032
     11 H232       10.8927  -10.3903   22.7489 H         1 SUB1        0.032
     12 H241       13.2243   -9.6083   22.4698 H         1 SUB1        0.027
     13 H242       13.8596  -11.1454   23.1482 H         1 SUB1        0.027
     14 H251       10.1730  -13.8411   24.1112 H         1 SUB1        0.200
     15 H252        9.4795  -12.3588   23.9344 H         1 SUB1        0.200
     16 H253       10.6046  -12.6061   25.1102 H         1 SUB1        0.200
     17 N1         15.5640  -12.1770   21.3760 N.am      1 SUB1       -0.283
     18 C1         14.6340  -11.3620   20.5950 C.3       1 SUB1        0.034
     19 C2         13.1470  -11.2940   21.1010 C.3       1 SUB1       -0.020
     20 C7         12.4150  -12.6670   20.9440 C.3       1 SUB1       -0.043
     21 C6         11.1010  -12.8180   21.7700 C.3       1 SUB1       -0.009
     22 C5         11.3930  -12.4610   23.2340 C.3       1 SUB1       -0.024
     23 C4         11.6930  -10.9390   23.2670 C.3       1 SUB1       -0.009
     24 C3         13.0620  -10.6940   22.5400 C.3       1 SUB1       -0.043
     25 N2         10.3290  -12.8470   24.1710 N.4       1 SUB1        0.221
     26 C31        17.3710  -16.9340   24.3950 C.3       1 SUB1        0.080
     27 N07        17.9450  -15.9540   23.4870 N.am      1 SUB1       -0.152
     28 C08        19.0400  -16.1960   22.6510 C.2       1 SUB1        0.317
     29 O09        19.7450  -17.2000   22.5880 O.2       1 SUB1       -0.390
     30 N10        19.2010  -15.0530   21.8590 N.am      1 SUB1       -0.135
     31 N11        18.2070  -14.1460   22.2110 N.am      1 SUB1       -0.115
     32 C12        17.4300  -14.6990   23.2110 C.2       1 SUB1        0.319
     33 O13        16.4570  -14.1480   23.6930 O.2       1 SUB1       -0.390
     34 C14        20.4440  -14.5980   21.2530 C.3       1 SUB1        0.078
     35 C15        20.1380  -13.4830   20.2800 C.2       1 SUB1       -0.069
     36 C16        19.0090  -12.7640   20.4130 C.2       1 SUB1       -0.051
     37 C17        17.9940  -12.8890   21.5140 C.3       1 SUB1        0.176
     38 C18        16.5950  -12.9620   20.8130 C.2       1 SUB1        0.212
     39 O19        16.3630  -13.7750   19.9310 O.2       1 SUB1       -0.392
     40 C32        16.9020  -16.4020   25.7390 C.3       1 SUB1        0.095
     41 S33        18.2030  -17.0280   26.7510 S.o2      1 SUB1       -0.001
     42 O34        17.9480  -16.9120   28.1580 O.2       1 SUB1       -0.169
     43 O35        18.5360  -18.3710   26.2200 O.2       1 SUB1       -0.169
     44 C36        19.7060  -16.1130   26.4360 C.ar      1 SUB1        0.088
     45 C37        20.2580  -15.3020   27.4200 C.ar      1 SUB1       -0.037
     46 C38        21.4520  -14.6360   27.1510 C.ar      1 SUB1       -0.060
     47 C39        22.0830  -14.7810   25.9190 C.ar      1 SUB1       -0.062
     48 C40        21.5350  -15.5990   24.9340 C.ar      1 SUB1       -0.060
     49 C41        20.3480  -16.2710   25.2010 C.ar      1 SUB1       -0.037
     50 H261       18.1334  -17.7038   24.5852 H         1 SUB1        0.059
     51 H262       16.5054  -17.3912   23.8934 H         1 SUB1        0.059
     52 H341       20.9211  -15.4329   20.7188 H         1 SUB1        0.067
     53 H342       21.1223  -14.2282   22.0360 H         1 SUB1        0.067
     54 H351       20.8320  -13.2614   19.4706 H         1 SUB1        0.048
     55 H361       18.8107  -12.0166   19.6462 H         1 SUB1        0.049
     56 H371       18.0528  -12.0387   22.2093 H         1 SUB1        0.094
     57 H401       16.8588  -15.3030   25.7554 H         1 SUB1        0.053
     58 H402       15.9224  -16.8118   26.0259 H         1 SUB1        0.053
     59 H451       19.7682  -15.1894   28.3804 H         1 SUB1        0.064
     60 H461       21.8937  -13.9988   27.9086 H         1 SUB1        0.062
     61 H471       23.0092  -14.2526   25.7244 H         1 SUB1        0.062
     62 H481       22.0265  -15.7098   23.9742 H         1 SUB1        0.062
     63 H491       19.9163  -16.9214   24.4489 H         1 SUB1        0.064
@<TRIPOS>BOND
     1   17    1 1  
     2   18    2 1  
     3   18    3 1  
     4   19    4 1  
     5   20    5 1  
     6   20    6 1  
     7   21    7 1  
     8   21    8 1  
     9   22    9 1  
    10   23   10 1  
    11   23   11 1  
    12   24   12 1  
    13   24   13 1  
    14   25   14 1  
    15   25   15 1  
    16   25   16 1  
    17   17   18 1  
    18   18   19 1  
    19   19   24 1  
    20   19   20 1  
    21   20   21 1  
    22   21   22 1  
    23   22   25 1  
    24   23   22 1  
    25   24   23 1  
    26   27   26 1  
    27   32   27 am 
    28   27   28 am 
    29   30   28 am 
    30   28   29 2  
    31   30   34 1  
    32   31   30 1  
    33   37   31 1  
    34   31   32 am 
    35   32   33 2  
    36   38   37 1  
    37   37   36 1  
    38   36   35 2  
    39   35   34 1  
    40   38   39 2  
    41   40   41 1  
    42   41   44 1  
    43   41   43 2  
    44   41   42 2  
    45   44   49 ar 
    46   44   45 ar 
    47   45   46 ar 
    48   46   47 ar 
    49   48   47 ar 
    50   49   48 ar 
    51   26   40 1  
    52   38   17 am 
    53   26   50 1  
    54   26   51 1  
    55   34   52 1  
    56   34   53 1  
    57   35   54 1  
    58   36   55 1  
    59   37   56 1  
    60   40   57 1  
    61   40   58 1  
    62   45   59 1  
    63   46   60 1  
    64   47   61 1  
    65   48   62 1  
    66   49   63 1  
@<TRIPOS>SUBSTRUCTURE
     1 SUB1        1 GROUP

