### 
### Created by X-TOOL on Mon Oct 24 23:29:42 2005
### 

@<TRIPOS>MOLECULE
1uwt_ligand
   25    25     1     0     0
SMALL
GAST_HUCK


@<TRIPOS>ATOM
      1 C1        119.3410   38.7040   64.7170 C.3       1 SUB1        0.187
      2 N1        118.7030   38.8310   65.8720 N.2       1 SUB1       -0.039
      3 C2        118.8190   37.5970   63.7760 C.3       1 SUB1        0.127
      4 N5        120.3920   39.5900   64.4340 N.3       1 SUB1       -0.278
      5 O7        118.8930   40.0260   66.5570 O.2       1 SUB1       -0.190
      6 O2        118.7250   36.3890   64.4950 O.3       1 SUB1       -0.385
      7 C3        119.8420   37.4220   62.6450 C.3       1 SUB1        0.112
      8 O3        119.2140   36.7030   61.6040 O.3       1 SUB1       -0.387
      9 C4        120.4200   38.7570   62.0970 C.3       1 SUB1        0.101
     10 O4        119.3120   39.5740   61.7840 O.3       1 SUB1       -0.387
     11 C5        121.2460   39.3860   63.2530 C.3       1 SUB1        0.062
     12 C6        121.9620   40.7360   62.9390 C.3       1 SUB1        0.062
     13 O6        121.0770   41.8230   63.1270 O.3       1 SUB1       -0.393
     14 H11       120.0616   37.9976   65.1549 H         1 SUB1        0.084
     15 H31       117.8362   37.8731   63.3664 H         1 SUB1        0.066
     16 H41       121.0457   39.5786   65.2936 H         1 SUB1        0.125
     17 H61       118.4041   35.7040   63.9204 H         1 SUB1        0.210
     18 H71       120.6828   36.8282   63.0329 H         1 SUB1        0.065
     19 H81       118.4593   37.1901   61.2947 H         1 SUB1        0.210
     20 H91       121.0493   38.5934   61.2097 H         1 SUB1        0.064
     21 H101      118.7757   39.1414   61.1299 H         1 SUB1        0.210
     22 H111      122.0287   38.6583   63.5134 H         1 SUB1        0.051
     23 H121      122.3080   40.7277   61.8949 H         1 SUB1        0.057
     24 H122      122.8254   40.8523   63.6105 H         1 SUB1        0.057
     25 H131      120.3312   41.7268   62.5464 H         1 SUB1        0.209
@<TRIPOS>BOND
     1    1    2 1  
     2    1    3 1  
     3    1    4 1  
     4    2    5 2  
     5    3    6 1  
     6    3    7 1  
     7    4   11 1  
     8    7    8 1  
     9    7    9 1  
    10    9   10 1  
    11    9   11 1  
    12   11   12 1  
    13   12   13 1  
    14    1   14 1  
    15    3   15 1  
    16    4   16 1  
    17    6   17 1  
    18    7   18 1  
    19    8   19 1  
    20    9   20 1  
    21   10   21 1  
    22   11   22 1  
    23   12   23 1  
    24   12   24 1  
    25   13   25 1  
@<TRIPOS>SUBSTRUCTURE
     1 SUB1        1 GROUP

