### 
### Created by X-TOOL on Sun Jun  3 11:52:26 2007
### 

@<TRIPOS>MOLECULE
2b1v_ligand
   39    41     1     0     0
SMALL
GAST_HUCK


@<TRIPOS>ATOM
      1 CAK         2.1150    4.0230   -4.2710 C.3       1 SUB1       -0.027
      2 CAJ         3.5080    3.6610   -4.8110 C.3       1 SUB1        0.019
      3 CAO         3.2480    2.6880   -5.9270 C.2       1 SUB1       -0.077
      4 CAR         4.0960    1.4270   -6.1080 C.3       1 SUB1       -0.040
      5 CAQ         2.2020    3.0030   -6.7840 C.2       1 SUB1       -0.108
      6 CAP         1.3760    4.1240   -6.6950 C.3       1 SUB1       -0.037
      7 CAL         1.4580    4.8860   -5.3520 C.3       1 SUB1        0.023
      8 CAT         0.0490    5.3320   -4.9360 C.3       1 SUB1        0.053
      9 OAU        -0.8400    4.2120   -5.0490 O.3       1 SUB1       -0.394
     10 CAM         2.3300    6.1110   -5.5310 C.3       1 SUB1        0.060
     11 OAH         3.4740    5.6640   -6.2770 O.3       1 SUB1       -0.363
     12 CAI         4.2680    4.8790   -5.4150 C.3       1 SUB1        0.098
     13 CAD         5.5890    4.4580   -6.1500 C.ar      1 SUB1       -0.023
     14 CAC         5.6220    4.2760   -7.5510 C.ar      1 SUB1       -0.066
     15 CAB         6.8360    3.9030   -8.1690 C.ar      1 SUB1       -0.040
     16 CAA         7.9890    3.7430   -7.3780 C.ar      1 SUB1        0.080
     17 OAG         9.1530    3.3990   -7.9790 O.3       1 SUB1       -0.338
     18 CAF         7.9650    3.9430   -5.9810 C.ar      1 SUB1       -0.040
     19 CAE         6.7490    4.3020   -5.3680 C.ar      1 SUB1       -0.066
     20 H           2.1843    4.5589   -3.3244 H         1 SUB1        0.030
     21 H           1.5256    3.1295   -4.0653 H         1 SUB1        0.030
     22 H           4.1243    3.2750   -3.9990 H         1 SUB1        0.049
     23 H           3.4554    0.5475   -6.0432 H         1 SUB1        0.038
     24 H           4.5809    1.4538   -7.0838 H         1 SUB1        0.038
     25 H           4.8536    1.3847   -5.3254 H         1 SUB1        0.038
     26 H           2.0080    2.3100   -7.6026 H         1 SUB1        0.024
     27 H           0.3501    3.7695   -6.7953 H         1 SUB1        0.035
     28 H           1.6988    4.8170   -7.4719 H         1 SUB1        0.035
     29 H          -0.2898    6.1405   -5.5838 H         1 SUB1        0.056
     30 H           0.0630    5.6912   -3.9070 H         1 SUB1        0.056
     31 H          -1.7250    4.4800   -4.7910 H         1 SUB1        0.209
     32 H           2.6215    6.5369   -4.5709 H         1 SUB1        0.057
     33 H           1.7985    6.9060   -6.0541 H         1 SUB1        0.057
     34 H           4.5283    5.4940   -4.5535 H         1 SUB1        0.076
     35 H           4.7214    4.4217   -8.1475 H         1 SUB1        0.053
     36 H           6.8794    3.7409   -9.2460 H         1 SUB1        0.052
     37 H           9.8446    3.3275   -7.3171 H         1 SUB1        0.246
     38 H           8.8711    3.8218   -5.3874 H         1 SUB1        0.052
     39 H           6.7062    4.4587   -4.2902 H         1 SUB1        0.053
@<TRIPOS>BOND
     1    1    2 1  
     2    1    7 1  
     3    2    3 1  
     4    2   12 1  
     5    3    4 1  
     6    3    5 2  
     7    5    6 1  
     8    6    7 1  
     9    7    8 1  
    10    7   10 1  
    11    8    9 1  
    12   10   11 1  
    13   11   12 1  
    14   12   13 1  
    15   13   14 ar 
    16   13   19 ar 
    17   14   15 ar 
    18   15   16 ar 
    19   16   17 1  
    20   16   18 ar 
    21   18   19 ar 
    22    1   20 1  
    23    1   21 1  
    24    2   22 1  
    25    4   23 1  
    26    4   24 1  
    27    4   25 1  
    28    5   26 1  
    29    6   27 1  
    30    6   28 1  
    31    8   29 1  
    32    8   30 1  
    33    9   31 1  
    34   10   32 1  
    35   10   33 1  
    36   12   34 1  
    37   14   35 1  
    38   15   36 1  
    39   17   37 1  
    40   18   38 1  
    41   19   39 1  
@<TRIPOS>SUBSTRUCTURE
     1 SUB1        1 GROUP

