2b1v_ligand
  -I-interpret- 

 39 41  0  0  0  0  0  0  0  0999 V2000
    2.1150    4.0230   -4.2710 C   0  0  0  0  0
    3.5080    3.6610   -4.8110 C   0  0  0  0  0
    3.2480    2.6880   -5.9270 C   0  0  0  0  0
    4.0960    1.4270   -6.1080 C   0  0  0  0  0
    2.2020    3.0030   -6.7840 C   0  0  0  0  0
    1.3760    4.1240   -6.6950 C   0  0  0  0  0
    1.4580    4.8860   -5.3520 C   0  0  0  0  0
    0.0490    5.3320   -4.9360 C   0  0  0  0  0
   -0.8400    4.2120   -5.0490 O   0  0  0  0  0
    2.3300    6.1110   -5.5310 C   0  0  0  0  0
    3.4740    5.6640   -6.2770 O   0  0  0  0  0
    4.2680    4.8790   -5.4150 C   0  0  0  0  0
    5.5890    4.4580   -6.1500 C   0  0  0  0  0
    5.6220    4.2760   -7.5510 C   0  0  0  0  0
    6.8360    3.9030   -8.1690 C   0  0  0  0  0
    7.9890    3.7430   -7.3780 C   0  0  0  0  0
    9.1530    3.3990   -7.9790 O   0  0  0  0  0
    7.9650    3.9430   -5.9810 C   0  0  0  0  0
    6.7490    4.3020   -5.3680 C   0  0  0  0  0
    2.1843    4.5589   -3.3244 H   0  0  0  0  0
    1.5256    3.1295   -4.0653 H   0  0  0  0  0
    4.1243    3.2750   -3.9990 H   0  0  0  0  0
    3.4554    0.5475   -6.0432 H   0  0  0  0  0
    4.5809    1.4538   -7.0838 H   0  0  0  0  0
    4.8536    1.3847   -5.3254 H   0  0  0  0  0
    2.0080    2.3100   -7.6026 H   0  0  0  0  0
    0.3501    3.7695   -6.7953 H   0  0  0  0  0
    1.6988    4.8170   -7.4719 H   0  0  0  0  0
   -0.2898    6.1405   -5.5838 H   0  0  0  0  0
    0.0630    5.6912   -3.9070 H   0  0  0  0  0
   -1.7250    4.4800   -4.7910 H   0  0  0  0  0
    2.6215    6.5369   -4.5709 H   0  0  0  0  0
    1.7985    6.9060   -6.0541 H   0  0  0  0  0
    4.5283    5.4940   -4.5535 H   0  0  0  0  0
    4.7214    4.4217   -8.1475 H   0  0  0  0  0
    6.8794    3.7409   -9.2460 H   0  0  0  0  0
    9.8446    3.3275   -7.3171 H   0  0  0  0  0
    8.8711    3.8218   -5.3874 H   0  0  0  0  0
    6.7062    4.4587   -4.2902 H   0  0  0  0  0
  1  2  1  0  0  0
  1  7  1  0  0  0
  2  3  1  0  0  0
  2 12  1  0  0  0
  3  4  1  0  0  0
  3  5  2  0  0  0
  5  6  1  0  0  0
  6  7  1  0  0  0
  7  8  1  0  0  0
  7 10  1  0  0  0
  8  9  1  0  0  0
 10 11  1  0  0  0
 11 12  1  0  0  0
 12 13  1  0  0  0
 13 14  4  0  0  0
 13 19  4  0  0  0
 14 15  4  0  0  0
 15 16  4  0  0  0
 16 17  1  0  0  0
 16 18  4  0  0  0
 18 19  4  0  0  0
  1 20  1  0  0  0
  1 21  1  0  0  0
  2 22  1  0  0  0
  4 23  1  0  0  0
  4 24  1  0  0  0
  4 25  1  0  0  0
  5 26  1  0  0  0
  6 27  1  0  0  0
  6 28  1  0  0  0
  8 29  1  0  0  0
  8 30  1  0  0  0
  9 31  1  0  0  0
 10 32  1  0  0  0
 10 33  1  0  0  0
 12 34  1  0  0  0
 14 35  1  0  0  0
 15 36  1  0  0  0
 17 37  1  0  0  0
 18 38  1  0  0  0
 19 39  1  0  0  0
M  END
$$$$
