### 
### Created by X-TOOL on Tue Oct 25 01:10:31 2005
### 

@<TRIPOS>MOLECULE
3pck_ligand
   15    15     1     0     0
SMALL
GAST_HUCK


@<TRIPOS>ATOM
      1 H61        15.7478   10.2045   39.5967 H         1 SUB1        0.123
      2 H81        13.5733   13.1503   41.8590 H         1 SUB1        0.065
      3 H91        12.1264   11.3289   42.7281 H         1 SUB1        0.054
      4 H151       13.5436    8.0389   39.8881 H         1 SUB1        0.269
      5 N1         14.1890    9.4890   40.7470 N.am      1 SUB1       -0.062
      6 C2         14.9550   10.4550   40.3000 C.2       1 SUB1        0.117
      7 C3         14.8000   11.8160   40.6900 C.2       1 SUB1        0.005
      8 C4         13.7500   12.1190   41.5570 C.2       1 SUB1       -0.057
      9 C5         12.9350   11.1110   42.0320 C.2       1 SUB1        0.007
     10 C6         13.1750    9.7930   41.5940 C.2       1 SUB1        0.255
     11 C7         15.7760   12.9150   40.2280 C.2       1 SUB1        0.015
     12 O1         16.6970   12.6030   39.4700 O.co2     1 SUB1       -0.589
     13 O2         15.6570   14.0890   40.5750 O.co2     1 SUB1       -0.589
     14 O4         12.3610    8.8800   41.9840 O.2       1 SUB1       -0.396
     15 O3         14.3270    8.3100   40.3520 O.3       1 SUB1       -0.217
@<TRIPOS>BOND
     1    6    1 1  
     2    8    2 1  
     3    9    3 1  
     4    5   15 1  
     5    5   10 am 
     6    6    5 am 
     7    7    6 2  
     8    7   11 1  
     9    8    7 1  
    10    8    9 2  
    11    9   10 1  
    12   10   14 2  
    13   11   13 2  
    14   11   12 2  
    15   15    4 1  
@<TRIPOS>SUBSTRUCTURE
     1 SUB1        1 GROUP

