3pck_ligand
  -I-interpret- 

 15 15  0  0  0  0  0  0  0  0999 V2000
   15.7478   10.2045   39.5967 H   0  0  0  0  0
   13.5733   13.1503   41.8590 H   0  0  0  0  0
   12.1264   11.3289   42.7281 H   0  0  0  0  0
   13.5436    8.0389   39.8881 H   0  0  0  0  0
   14.1890    9.4890   40.7470 N   0  0  0  0  0
   14.9550   10.4550   40.3000 C   0  0  0  0  0
   14.8000   11.8160   40.6900 C   0  0  0  0  0
   13.7500   12.1190   41.5570 C   0  0  0  0  0
   12.9350   11.1110   42.0320 C   0  0  0  0  0
   13.1750    9.7930   41.5940 C   0  0  0  0  0
   15.7760   12.9150   40.2280 C   0  0  0  0  0
   16.6970   12.6030   39.4700 O   0  5  0  0  0
   15.6570   14.0890   40.5750 O   0  0  0  0  0
   12.3610    8.8800   41.9840 O   0  0  0  0  0
   14.3270    8.3100   40.3520 O   0  0  0  0  0
  6  1  1  0  0  0
  8  2  1  0  0  0
  9  3  1  0  0  0
  5 15  1  0  0  0
  5 10  1  0  0  0
  6  5  1  0  0  0
  7  6  2  0  0  0
  7 11  1  0  0  0
  8  7  1  0  0  0
  8  9  2  0  0  0
  9 10  1  0  0  0
 10 14  2  0  0  0
 11 13  2  0  0  0
 11 12  1  0  0  0
 15  4  1  0  0  0
M  END
$$$$
