1b32_ligand
  -I-interpret- 

 64 63  0  0  0  0  0  0  0  0999 V2000
    6.9470   16.5650   15.2090 N   0  3  0  0  0
    6.4310   17.8370   14.5950 C   0  0  0  0  0
    5.2030   18.3330   15.3390 C   0  0  0  0  0
    4.4630   17.5300   15.9270 O   0  0  0  0  0
    6.2090   17.7120   13.0770 C   0  0  0  0  0
    5.2150   16.6570   12.6240 C   0  0  0  0  0
    5.1970   16.5260   11.0860 C   0  0  0  0  0
    6.4140   15.8330   10.4910 C   0  0  0  0  0
    6.6320   14.4330   10.9630 N   0  3  0  0  0
    5.0540   19.6500   15.3890 N   0  0  0  0  0
    3.9230   20.2920   16.0830 C   0  0  0  0  0
    2.6280   20.1380   15.3150 C   0  0  0  0  0
    2.5970   20.3970   14.1110 O   0  0  0  0  0
    4.2400   21.8120   16.1170 C   0  0  0  0  0
    5.4510   22.0780   17.0350 C   0  0  0  0  0
    5.0080   21.7180   18.7500 S   0  0  0  0  0
    5.5970   23.1860   19.5800 C   0  0  0  0  0
    1.5540   19.7940   16.0470 N   0  0  0  0  0
    0.2440   19.7000   15.4120 C   0  0  0  0  0
   -0.7890   20.5490   16.1700 C   0  0  0  0  0
   -1.7780   20.9220   15.4780 O   0  5  0  0  0
   -0.3060   18.2710   15.3280 C   0  0  0  0  0
   -1.3580   18.3550   14.1870 C   0  0  0  0  0
   -2.1190   17.0690   14.0400 C   0  0  0  0  0
   -3.3410   17.2780   13.1450 C   0  0  0  0  0
   -2.8640   16.9820   11.7550 N   0  3  0  0  0
   -0.5490   20.9310   17.3190 O   0  0  0  0  0
    6.3464   16.2920   15.9711 H   0  0  0  0  0
    7.2135   18.5978   14.7325 H   0  0  0  0  0
    7.1794   17.4775   12.6151 H   0  0  0  0  0
    5.8538   18.6860   12.7095 H   0  0  0  0  0
    4.2101   16.9391   12.9712 H   0  0  0  0  0
    5.4960   15.6882   13.0628 H   0  0  0  0  0
    5.1350   17.5370   10.6570 H   0  0  0  0  0
    4.3029   15.9517   10.8018 H   0  0  0  0  0
    7.3048   16.4239   10.7503 H   0  0  0  0  0
    6.2944   15.8106    9.3978 H   0  0  0  0  0
    6.7669   14.4324   11.9619 H   0  0  0  0  0
    7.4490   14.0502   10.5135 H   0  0  0  0  0
    5.8274   13.8714   10.7322 H   0  0  0  0  0
    5.7341   20.2289   14.9392 H   0  0  0  0  0
    3.8150   19.8815   17.0978 H   0  0  0  0  0
    3.3654   22.3580   16.5004 H   0  0  0  0  0
    4.4714   22.1587   15.0991 H   0  0  0  0  0
    5.7503   23.1330   16.9487 H   0  0  0  0  0
    6.2887   21.4332   16.7309 H   0  0  0  0  0
    6.6825   23.2815   19.4299 H   0  0  0  0  0
    5.3809   23.1106   20.6559 H   0  0  0  0  0
    5.0903   24.0699   19.1654 H   0  0  0  0  0
    1.6529   19.6032   17.0236 H   0  0  0  0  0
    0.3426   20.0906   14.3884 H   0  0  0  0  0
   -0.7774   17.9745   16.2766 H   0  0  0  0  0
    0.4916   17.5566   15.0759 H   0  0  0  0  0
   -0.8415   18.5741   13.2408 H   0  0  0  0  0
   -2.0667   19.1651   14.4139 H   0  0  0  0  0
   -2.4494   16.7268   15.0318 H   0  0  0  0  0
   -1.4642   16.3087   13.5892 H   0  0  0  0  0
   -3.6994   18.3155   13.2172 H   0  0  0  0  0
   -4.1504   16.5898   13.4300 H   0  0  0  0  0
   -2.1225   17.6199   11.5113 H   0  0  0  0  0
   -3.6282   17.0918   11.1070 H   0  0  0  0  0
   -2.5205   16.0353   11.7121 H   0  0  0  0  0
    7.8820   16.7140   15.5549 H   0  0  0  0  0
    6.9585   15.8363   14.5127 H   0  0  0  0  0
  3  2  1  0  0  0
  2  5  1  0  0  0
  2  1  1  0  0  0
  5  6  1  0  0  0
  6  7  1  0  0  0
  7  8  1  0  0  0
  8  9  1  0  0  0
  3  4  2  0  0  0
 12 11  1  0  0  0
 11 14  1  0  0  0
 11 10  1  0  0  0
 14 15  1  0  0  0
 15 16  1  0  0  0
 16 17  1  0  0  0
 12 13  2  0  0  0
 19 20  1  0  0  0
 19 22  1  0  0  0
 18 19  1  0  0  0
 22 23  1  0  0  0
 23 24  1  0  0  0
 24 25  1  0  0  0
 25 26  1  0  0  0
 20 27  2  0  0  0
 20 21  1  0  0  0
 10  3  1  0  0  0
 12 18  1  0  0  0
  1 28  1  0  0  0
  2 29  1  0  0  0
  5 30  1  0  0  0
  5 31  1  0  0  0
  6 32  1  0  0  0
  6 33  1  0  0  0
  7 34  1  0  0  0
  7 35  1  0  0  0
  8 36  1  0  0  0
  8 37  1  0  0  0
  9 38  1  0  0  0
  9 39  1  0  0  0
  9 40  1  0  0  0
 10 41  1  0  0  0
 11 42  1  0  0  0
 14 43  1  0  0  0
 14 44  1  0  0  0
 15 45  1  0  0  0
 15 46  1  0  0  0
 17 47  1  0  0  0
 17 48  1  0  0  0
 17 49  1  0  0  0
 18 50  1  0  0  0
 19 51  1  0  0  0
 22 52  1  0  0  0
 22 53  1  0  0  0
 23 54  1  0  0  0
 23 55  1  0  0  0
 24 56  1  0  0  0
 24 57  1  0  0  0
 25 58  1  0  0  0
 25 59  1  0  0  0
 26 60  1  0  0  0
 26 61  1  0  0  0
 26 62  1  0  0  0
  1 63  1  0  0  0
  1 64  1  0  0  0
M  END
$$$$
