### 
### Created by X-TOOL on Mon Oct 24 22:35:22 2005
### 

@<TRIPOS>MOLECULE
1b32_ligand
   64    63     1     0     0
SMALL
GAST_HUCK


@<TRIPOS>ATOM
      1 N           6.9470   16.5650   15.2090 N.4       1 SUB1        0.238
      2 CA          6.4310   17.8370   14.5950 C.3       1 SUB1        0.065
      3 C           5.2030   18.3330   15.3390 C.2       1 SUB1        0.227
      4 O           4.4630   17.5300   15.9270 O.2       1 SUB1       -0.391
      5 CB          6.2090   17.7120   13.0770 C.3       1 SUB1        0.008
      6 CG          5.2150   16.6570   12.6240 C.3       1 SUB1       -0.041
      7 CD          5.1970   16.5260   11.0860 C.3       1 SUB1       -0.012
      8 CE          6.4140   15.8330   10.4910 C.3       1 SUB1       -0.035
      9 NZ          6.6320   14.4330   10.9630 N.4       1 SUB1        0.219
     10 N           5.0540   19.6500   15.3890 N.am      1 SUB1       -0.261
     11 CA          3.9230   20.2920   16.0830 C.3       1 SUB1        0.132
     12 C           2.6280   20.1380   15.3150 C.2       1 SUB1        0.205
     13 O           2.5970   20.3970   14.1110 O.2       1 SUB1       -0.394
     14 CB          4.2400   21.8120   16.1170 C.3       1 SUB1       -0.003
     15 CG          5.4510   22.0780   17.0350 C.3       1 SUB1       -0.002
     16 SD          5.0080   21.7180   18.7500 S.3       1 SUB1       -0.164
     17 CE          5.5970   23.1860   19.5800 C.3       1 SUB1       -0.018
     18 N           1.5540   19.7940   16.0470 N.am      1 SUB1       -0.268
     19 CA          0.2440   19.7000   15.4120 C.3       1 SUB1        0.081
     20 C          -0.7890   20.5490   16.1700 C.2       1 SUB1        0.053
     21 O          -1.7780   20.9220   15.4780 O.co2     1 SUB1       -0.564
     22 CB         -0.3060   18.2710   15.3280 C.3       1 SUB1       -0.018
     23 CG         -1.3580   18.3550   14.1870 C.3       1 SUB1       -0.043
     24 CD         -2.1190   17.0690   14.0400 C.3       1 SUB1       -0.012
     25 CE         -3.3410   17.2780   13.1450 C.3       1 SUB1       -0.035
     26 NZ         -2.8640   16.9820   11.7550 N.4       1 SUB1        0.219
     27 OXT        -0.5490   20.9310   17.3190 O.co2     1 SUB1       -0.564
     28 H11         6.3464   16.2920   15.9711 H         1 SUB1        0.201
     29 H21         7.2135   18.5978   14.7325 H         1 SUB1        0.110
     30 H51         7.1794   17.4775   12.6151 H         1 SUB1        0.035
     31 H52         5.8538   18.6860   12.7095 H         1 SUB1        0.035
     32 H61         4.2101   16.9391   12.9712 H         1 SUB1        0.027
     33 H62         5.4960   15.6882   13.0628 H         1 SUB1        0.027
     34 H71         5.1350   17.5370   10.6570 H         1 SUB1        0.032
     35 H72         4.3029   15.9517   10.8018 H         1 SUB1        0.032
     36 H81         7.3048   16.4239   10.7503 H         1 SUB1        0.081
     37 H82         6.2944   15.8106    9.3978 H         1 SUB1        0.081
     38 H91         6.7669   14.4324   11.9619 H         1 SUB1        0.199
     39 H92         7.4490   14.0502   10.5135 H         1 SUB1        0.199
     40 H93         5.8274   13.8714   10.7322 H         1 SUB1        0.199
     41 H101        5.7341   20.2289   14.9392 H         1 SUB1        0.188
     42 H111        3.8150   19.8815   17.0978 H         1 SUB1        0.080
     43 H141        3.3654   22.3580   16.5004 H         1 SUB1        0.032
     44 H142        4.4714   22.1587   15.0991 H         1 SUB1        0.032
     45 H151        5.7503   23.1330   16.9487 H         1 SUB1        0.038
     46 H152        6.2887   21.4332   16.7309 H         1 SUB1        0.038
     47 H171        6.6825   23.2815   19.4299 H         1 SUB1        0.034
     48 H172        5.3809   23.1106   20.6559 H         1 SUB1        0.034
     49 H173        5.0903   24.0699   19.1654 H         1 SUB1        0.034
     50 H181        1.6529   19.6032   17.0236 H         1 SUB1        0.190
     51 H191        0.3426   20.0906   14.3884 H         1 SUB1        0.078
     52 H221       -0.7774   17.9745   16.2766 H         1 SUB1        0.032
     53 H222        0.4916   17.5566   15.0759 H         1 SUB1        0.032
     54 H231       -0.8415   18.5741   13.2408 H         1 SUB1        0.027
     55 H232       -2.0667   19.1651   14.4139 H         1 SUB1        0.027
     56 H241       -2.4494   16.7268   15.0318 H         1 SUB1        0.032
     57 H242       -1.4642   16.3087   13.5892 H         1 SUB1        0.032
     58 H251       -3.6994   18.3155   13.2172 H         1 SUB1        0.081
     59 H252       -4.1504   16.5898   13.4300 H         1 SUB1        0.081
     60 H261       -2.1225   17.6199   11.5113 H         1 SUB1        0.199
     61 H262       -3.6282   17.0918   11.1070 H         1 SUB1        0.199
     62 H263       -2.5205   16.0353   11.7121 H         1 SUB1        0.199
     63 H12         7.8820   16.7140   15.5549 H         1 SUB1        0.201
     64 H13         6.9585   15.8363   14.5127 H         1 SUB1        0.201
@<TRIPOS>BOND
     1    3    2 1  
     2    2    5 1  
     3    2    1 1  
     4    5    6 1  
     5    6    7 1  
     6    7    8 1  
     7    8    9 1  
     8    3    4 2  
     9   12   11 1  
    10   11   14 1  
    11   11   10 1  
    12   14   15 1  
    13   15   16 1  
    14   16   17 1  
    15   12   13 2  
    16   19   20 1  
    17   19   22 1  
    18   18   19 1  
    19   22   23 1  
    20   23   24 1  
    21   24   25 1  
    22   25   26 1  
    23   20   27 2  
    24   20   21 2  
    25   10    3 am 
    26   12   18 am 
    27    1   28 1  
    28    2   29 1  
    29    5   30 1  
    30    5   31 1  
    31    6   32 1  
    32    6   33 1  
    33    7   34 1  
    34    7   35 1  
    35    8   36 1  
    36    8   37 1  
    37    9   38 1  
    38    9   39 1  
    39    9   40 1  
    40   10   41 1  
    41   11   42 1  
    42   14   43 1  
    43   14   44 1  
    44   15   45 1  
    45   15   46 1  
    46   17   47 1  
    47   17   48 1  
    48   17   49 1  
    49   18   50 1  
    50   19   51 1  
    51   22   52 1  
    52   22   53 1  
    53   23   54 1  
    54   23   55 1  
    55   24   56 1  
    56   24   57 1  
    57   25   58 1  
    58   25   59 1  
    59   26   60 1  
    60   26   61 1  
    61   26   62 1  
    62    1   63 1  
    63    1   64 1  
@<TRIPOS>SUBSTRUCTURE
     1 SUB1        1 GROUP

