1m7y_ligand
  -I-interpret- 

 47 47  0  0  0  0  0  0  0  0999 V2000
   23.2370    2.2760   18.8790 N   0  0  0  0  0
   22.0730    2.0290   18.1400 C   0  0  0  0  0
   22.0480    2.6300   16.7730 C   0  0  0  0  0
   21.0520    1.2450   18.7510 C   0  0  0  0  0
   19.9540    0.9980   18.0770 O   0  0  0  0  0
   21.2870    0.7490   20.1240 C   0  0  0  0  0
   20.2070   -0.1270   20.8680 C   0  0  0  0  0
   22.5640    1.0870   20.7910 C   0  0  0  0  0
   23.5040    1.8410   20.1460 C   0  0  0  0  0
   22.7960    0.5630   22.2090 C   0  0  0  0  0
   23.1110   -0.8190   22.1390 O   0  0  0  0  0
   24.0800   -1.5320   23.2440 P   0  0  0  0  0
   25.2680   -1.9890   22.4650 O   0  5  0  0  0
   23.3690   -2.6690   23.8070 O   0  0  0  0  0
   24.4090   -0.5470   24.2940 O   0  5  0  0  0
   18.8790    0.0800   20.3520 N   0  3  0  0  0
   17.7230   -0.0800   21.0240 C   0  0  0  0  0
   16.5550    0.0900   20.2560 C   0  0  0  0  0
   16.6430    0.7530   19.1500 O   0  0  0  0  0
   15.4000   -0.4010   20.6440 O   0  5  0  0  0
   17.7250   -0.3570   22.4510 C   0  0  0  0  0
   16.8160   -1.1250   23.0540 C   0  0  0  0  0
   17.0180   -1.3310   24.4750 O   0  0  0  0  0
   15.7600   -1.4200   25.1710 C   0  0  0  0  0
   15.5090   -2.8490   25.6690 C   0  0  0  0  0
   15.3360   -3.7370   24.5200 N   0  3  0  0  0
   21.0975    2.3790   16.2795 H   0  0  0  0  0
   22.8849    2.2305   16.1814 H   0  0  0  0  0
   22.1430    3.7231   16.8512 H   0  0  0  0  0
   19.3704    0.4686   18.6076 H   0  0  0  0  0
   20.2152    0.1350   21.9363 H   0  0  0  0  0
   20.4704   -1.1883   20.7487 H   0  0  0  0  0
   24.4419    2.0886   20.6299 H   0  0  0  0  0
   21.8853    0.7048   22.8094 H   0  0  0  0  0
   23.6301    1.1094   22.6734 H   0  0  0  0  0
   18.5109    0.0863   23.0607 H   0  0  0  0  0
   15.9791   -1.5672   22.5155 H   0  0  0  0  0
   14.9489   -1.1294   24.4872 H   0  0  0  0  0
   15.7760   -0.7362   26.0325 H   0  0  0  0  0
   14.6002   -2.8681   26.2884 H   0  0  0  0  0
   16.3681   -3.1858   26.2678 H   0  0  0  0  0
   15.1708   -4.6772   24.8439 H   0  0  0  0  0
   16.1690   -3.7186   23.9527 H   0  0  0  0  0
   14.5490   -3.4274   23.9716 H   0  0  0  0  0
   18.8025   -0.5812   19.5015 H   0  0  0  0  0
   17.7197   -1.1608   20.8194 H   0  0  0  0  0
   18.8674    1.0370   20.0357 H   0  0  0  0  0
  1  2  4  0  0  0
  1  9  4  0  0  0
  2  3  1  0  0  0
  2  4  4  0  0  0
  4  5  1  0  0  0
  4  6  4  0  0  0
  6  7  1  0  0  0
  6  8  4  0  0  0
  7 16  1  0  0  0
  8  9  4  0  0  0
  8 10  1  0  0  0
 10 11  1  0  0  0
 11 12  1  0  0  0
 12 13  1  0  0  0
 12 14  2  0  0  0
 12 15  1  0  0  0
 16 17  1  0  0  0
 17 18  1  0  0  0
 17 21  1  0  0  0
 18 19  2  0  0  0
 18 20  1  0  0  0
 21 22  2  0  0  0
 22 23  1  0  0  0
 23 24  1  0  0  0
 24 25  1  0  0  0
 25 26  1  0  0  0
  3 27  1  0  0  0
  3 28  1  0  0  0
  3 29  1  0  0  0
  5 30  1  0  0  0
  7 31  1  0  0  0
  7 32  1  0  0  0
  9 33  1  0  0  0
 10 34  1  0  0  0
 10 35  1  0  0  0
 21 36  1  0  0  0
 22 37  1  0  0  0
 24 38  1  0  0  0
 24 39  1  0  0  0
 25 40  1  0  0  0
 25 41  1  0  0  0
 26 42  1  0  0  0
 26 43  1  0  0  0
 26 44  1  0  0  0
 16 45  1  0  0  0
 17 46  1  0  0  0
 16 47  1  0  0  0
M  END
$$$$
