### 
### Created by X-TOOL on Tue Oct 25 02:21:33 2005
### 

@<TRIPOS>MOLECULE
1nz7_ligand
   84    85     1     0     0
SMALL
GAST_HUCK


@<TRIPOS>ATOM
      1 O6         35.7960   30.0420   23.4430 O.co2     1 SUB1       -0.690
      2 C24        34.8560   29.2950   23.7270 C.2       1 SUB1       -0.082
      3 O7         33.9830   29.6860   24.4570 O.co2     1 SUB1       -0.690
      4 C8         34.7810   27.8570   23.1240 C.2       1 SUB1        0.118
      5 O5         35.0950   26.9380   23.9000 O.2       1 SUB1       -0.481
      6 N4         34.3740   27.6280   21.7530 N.am      1 SUB1       -0.171
      7 C26        34.3520   26.3200   21.1990 C.ar      1 SUB1        0.170
      8 C27        33.1090   25.9260   20.5740 C.ar      1 SUB1        0.012
      9 C28        32.9290   24.6680   19.9780 C.ar      1 SUB1       -0.036
     10 C29        33.9690   23.7240   19.9810 C.ar      1 SUB1       -0.035
     11 C30        35.2050   24.0410   20.5750 C.ar      1 SUB1       -0.009
     12 C25        35.4480   25.3150   21.2040 C.ar      1 SUB1        0.142
     13 C31        36.8440   25.4580   21.7700 C.2       1 SUB1        0.198
     14 O9         37.6800   24.5540   21.7180 O.co2     1 SUB1       -0.463
     15 O10        37.2040   26.4580   22.3010 O.co2     1 SUB1       -0.463
     16 C2         33.8780   28.7270   20.9920 C.ar      1 SUB1        0.113
     17 C3         32.5840   29.2390   21.3870 C.ar      1 SUB1       -0.036
     18 C4         31.9140   30.3380   20.7780 C.ar      1 SUB1       -0.071
     19 C5         32.5260   31.0410   19.7040 C.ar      1 SUB1       -0.052
     20 C6         33.8780   30.4990   19.3010 C.ar      1 SUB1       -0.062
     21 C1         34.5700   29.3730   19.9080 C.ar      1 SUB1       -0.010
     22 C32        35.9420   28.8750   19.4460 C.3       1 SUB1       -0.023
     23 C33        37.0400   29.9520   19.3760 C.3       1 SUB1       -0.056
     24 C7         31.9740   32.2570   18.7980 C.3       1 SUB1        0.017
     25 C9         31.1950   31.4670   17.6480 C.3       1 SUB1        0.139
     26 N1         31.2010   32.2800   16.4480 N.am      1 SUB1       -0.264
     27 C10        31.1170   33.3250   15.6150 C.2       1 SUB1        0.175
     28 O4         31.5570   32.9620   14.4230 O.2       1 SUB1       -0.397
     29 C23        30.8810   34.7290   15.9670 C.3       1 SUB1        0.026
     30 C11        29.9780   30.5910   17.9600 C.2       1 SUB1        0.204
     31 O8         30.3820   29.4080   17.8860 O.2       1 SUB1       -0.394
     32 N2         28.7940   31.0600   18.1140 N.am      1 SUB1       -0.285
     33 C12        27.6640   30.2030   18.2510 C.3       1 SUB1        0.031
     34 C13        26.7540   30.7360   19.3630 C.3       1 SUB1       -0.031
     35 C15        27.4040   30.6850   20.7750 C.3       1 SUB1       -0.034
     36 C14        26.4990   31.2100   21.9140 C.3       1 SUB1        0.038
     37 C16        25.3580   30.2310   22.2820 C.2       1 SUB1        0.179
     38 O1         25.3270   29.0480   22.6160 O.2       1 SUB1       -0.397
     39 N3         24.2710   31.0360   22.1280 N.am      1 SUB1       -0.270
     40 C17        22.8930   30.5330   22.2650 C.3       1 SUB1        0.082
     41 C22        22.6240   29.4330   21.2090 C.2       1 SUB1        0.053
     42 O2         22.1050   28.3740   21.5520 O.co2     1 SUB1       -0.564
     43 O3         22.9420   29.6080   20.0560 O.co2     1 SUB1       -0.564
     44 C18        21.9070   31.7010   22.0810 C.3       1 SUB1       -0.009
     45 C34        21.9880   32.7600   23.1930 C.3       1 SUB1       -0.002
     46 S1         21.0650   32.2890   24.6740 S.3       1 SUB1       -0.164
     47 C35        19.6410   31.7210   25.0580 C.3       1 SUB1       -0.018
     48 H81        32.2843   26.6294   20.5654 H         1 SUB1        0.065
     49 H91        31.9811   24.4234   19.5124 H         1 SUB1        0.086
     50 H101       33.8198   22.7515   19.5259 H         1 SUB1        0.065
     51 H111       35.9994   23.3036   20.5589 H         1 SUB1        0.086
     52 H171       32.0841   28.7464   22.2131 H         1 SUB1        0.054
     53 H181       30.9354   30.6394   21.1338 H         1 SUB1        0.049
     54 H201       34.3805   30.9977   18.4802 H         1 SUB1        0.048
     55 H221       36.2845   28.1002   20.1476 H         1 SUB1        0.041
     56 H222       35.8349   28.4475   18.4382 H         1 SUB1        0.041
     57 H231       37.9767   29.4868   19.0351 H         1 SUB1        0.025
     58 H232       36.7500   30.7375   18.6627 H         1 SUB1        0.025
     59 H233       37.1996   30.3903   20.3722 H         1 SUB1        0.025
     60 H241       31.2875   32.9062   19.3612 H         1 SUB1        0.046
     61 H242       32.7943   32.8556   18.3753 H         1 SUB1        0.046
     62 H251       31.9114   30.6716   17.3950 H         1 SUB1        0.082
     63 H261       31.4179   31.5678   15.7804 H         1 SUB1        0.188
     64 H291       30.8693   35.3318   15.0469 H         1 SUB1        0.047
     65 H292       29.9101   34.8305   16.4740 H         1 SUB1        0.047
     66 H293       31.6862   35.0918   16.6227 H         1 SUB1        0.047
     67 H321       28.6609   32.0508   18.1385 H         1 SUB1        0.185
     68 H331       27.0978   30.1779   17.3083 H         1 SUB1        0.052
     69 H332       27.9949   29.1882   18.5168 H         1 SUB1        0.052
     70 H341       26.5038   31.7846   19.1445 H         1 SUB1        0.029
     71 H342       25.8367   30.1297   19.3918 H         1 SUB1        0.029
     72 H351       27.6587   29.6403   21.0064 H         1 SUB1        0.029
     73 H352       28.3161   31.2998   20.7638 H         1 SUB1        0.029
     74 H361       27.1127   31.3693   22.8128 H         1 SUB1        0.050
     75 H362       26.0428   32.1598   21.5983 H         1 SUB1        0.050
     76 H391       24.4128   32.0026   21.9144 H         1 SUB1        0.190
     77 H401       22.7516   30.1144   23.2723 H         1 SUB1        0.078
     78 H441       22.1238   32.1999   21.1249 H         1 SUB1        0.033
     79 H442       20.8824   31.3010   22.0714 H         1 SUB1        0.033
     80 H451       23.0411   32.9009   23.4778 H         1 SUB1        0.038
     81 H452       21.5711   33.7063   22.8179 H         1 SUB1        0.038
     82 H471       19.5832   31.6081   26.1507 H         1 SUB1        0.034
     83 H472       18.8574   32.4189   24.7282 H         1 SUB1        0.034
     84 H473       19.4900   30.7381   24.5879 H         1 SUB1        0.034
@<TRIPOS>BOND
     1    1    2 2  
     2    2    3 2  
     3    2    4 1  
     4    4    5 2  
     5    4    6 am 
     6    6    7 1  
     7    6   16 1  
     8    7    8 ar 
     9    7   12 ar 
    10    8    9 ar 
    11    9   10 ar 
    12   10   11 ar 
    13   11   12 ar 
    14   12   13 1  
    15   13   14 2  
    16   13   15 2  
    17   16   17 ar 
    18   16   21 ar 
    19   17   18 ar 
    20   18   19 ar 
    21   19   20 ar 
    22   19   24 1  
    23   20   21 ar 
    24   21   22 1  
    25   22   23 1  
    26   24   25 1  
    27   25   26 1  
    28   25   30 1  
    29   26   27 am 
    30   27   28 2  
    31   27   29 1  
    32   30   31 2  
    33   30   32 am 
    34   32   33 1  
    35   33   34 1  
    36   34   35 1  
    37   35   36 1  
    38   36   37 1  
    39   37   38 2  
    40   37   39 am 
    41   39   40 1  
    42   40   41 1  
    43   40   44 1  
    44   41   42 2  
    45   41   43 2  
    46   44   45 1  
    47   45   46 1  
    48   46   47 1  
    49    8   48 1  
    50    9   49 1  
    51   10   50 1  
    52   11   51 1  
    53   17   52 1  
    54   18   53 1  
    55   20   54 1  
    56   22   55 1  
    57   22   56 1  
    58   23   57 1  
    59   23   58 1  
    60   23   59 1  
    61   24   60 1  
    62   24   61 1  
    63   25   62 1  
    64   26   63 1  
    65   29   64 1  
    66   29   65 1  
    67   29   66 1  
    68   32   67 1  
    69   33   68 1  
    70   33   69 1  
    71   34   70 1  
    72   34   71 1  
    73   35   72 1  
    74   35   73 1  
    75   36   74 1  
    76   36   75 1  
    77   39   76 1  
    78   40   77 1  
    79   44   78 1  
    80   44   79 1  
    81   45   80 1  
    82   45   81 1  
    83   47   82 1  
    84   47   83 1  
    85   47   84 1  
@<TRIPOS>SUBSTRUCTURE
     1 SUB1        1 GROUP

