1nz7_ligand
  -I-interpret- 

 84 85  0  0  0  0  0  0  0  0999 V2000
   35.7960   30.0420   23.4430 O   0  5  0  0  0
   34.8560   29.2950   23.7270 C   0  0  0  0  0
   33.9830   29.6860   24.4570 O   0  0  0  0  0
   34.7810   27.8570   23.1240 C   0  0  0  0  0
   35.0950   26.9380   23.9000 O   0  0  0  0  0
   34.3740   27.6280   21.7530 N   0  0  0  0  0
   34.3520   26.3200   21.1990 C   0  0  0  0  0
   33.1090   25.9260   20.5740 C   0  0  0  0  0
   32.9290   24.6680   19.9780 C   0  0  0  0  0
   33.9690   23.7240   19.9810 C   0  0  0  0  0
   35.2050   24.0410   20.5750 C   0  0  0  0  0
   35.4480   25.3150   21.2040 C   0  0  0  0  0
   36.8440   25.4580   21.7700 C   0  0  0  0  0
   37.6800   24.5540   21.7180 O   0  5  0  0  0
   37.2040   26.4580   22.3010 O   0  0  0  0  0
   33.8780   28.7270   20.9920 C   0  0  0  0  0
   32.5840   29.2390   21.3870 C   0  0  0  0  0
   31.9140   30.3380   20.7780 C   0  0  0  0  0
   32.5260   31.0410   19.7040 C   0  0  0  0  0
   33.8780   30.4990   19.3010 C   0  0  0  0  0
   34.5700   29.3730   19.9080 C   0  0  0  0  0
   35.9420   28.8750   19.4460 C   0  0  0  0  0
   37.0400   29.9520   19.3760 C   0  0  0  0  0
   31.9740   32.2570   18.7980 C   0  0  0  0  0
   31.1950   31.4670   17.6480 C   0  0  0  0  0
   31.2010   32.2800   16.4480 N   0  0  0  0  0
   31.1170   33.3250   15.6150 C   0  0  0  0  0
   31.5570   32.9620   14.4230 O   0  0  0  0  0
   30.8810   34.7290   15.9670 C   0  0  0  0  0
   29.9780   30.5910   17.9600 C   0  0  0  0  0
   30.3820   29.4080   17.8860 O   0  0  0  0  0
   28.7940   31.0600   18.1140 N   0  0  0  0  0
   27.6640   30.2030   18.2510 C   0  0  0  0  0
   26.7540   30.7360   19.3630 C   0  0  0  0  0
   27.4040   30.6850   20.7750 C   0  0  0  0  0
   26.4990   31.2100   21.9140 C   0  0  0  0  0
   25.3580   30.2310   22.2820 C   0  0  0  0  0
   25.3270   29.0480   22.6160 O   0  0  0  0  0
   24.2710   31.0360   22.1280 N   0  0  0  0  0
   22.8930   30.5330   22.2650 C   0  0  0  0  0
   22.6240   29.4330   21.2090 C   0  0  0  0  0
   22.1050   28.3740   21.5520 O   0  5  0  0  0
   22.9420   29.6080   20.0560 O   0  0  0  0  0
   21.9070   31.7010   22.0810 C   0  0  0  0  0
   21.9880   32.7600   23.1930 C   0  0  0  0  0
   21.0650   32.2890   24.6740 S   0  0  0  0  0
   19.6410   31.7210   25.0580 C   0  0  0  0  0
   32.2843   26.6294   20.5654 H   0  0  0  0  0
   31.9811   24.4234   19.5124 H   0  0  0  0  0
   33.8198   22.7515   19.5259 H   0  0  0  0  0
   35.9994   23.3036   20.5589 H   0  0  0  0  0
   32.0841   28.7464   22.2131 H   0  0  0  0  0
   30.9354   30.6394   21.1338 H   0  0  0  0  0
   34.3805   30.9977   18.4802 H   0  0  0  0  0
   36.2845   28.1002   20.1476 H   0  0  0  0  0
   35.8349   28.4475   18.4382 H   0  0  0  0  0
   37.9767   29.4868   19.0351 H   0  0  0  0  0
   36.7500   30.7375   18.6627 H   0  0  0  0  0
   37.1996   30.3903   20.3722 H   0  0  0  0  0
   31.2875   32.9062   19.3612 H   0  0  0  0  0
   32.7943   32.8556   18.3753 H   0  0  0  0  0
   31.9114   30.6716   17.3950 H   0  0  0  0  0
   31.4179   31.5678   15.7804 H   0  0  0  0  0
   30.8693   35.3318   15.0469 H   0  0  0  0  0
   29.9101   34.8305   16.4740 H   0  0  0  0  0
   31.6862   35.0918   16.6227 H   0  0  0  0  0
   28.6609   32.0508   18.1385 H   0  0  0  0  0
   27.0978   30.1779   17.3083 H   0  0  0  0  0
   27.9949   29.1882   18.5168 H   0  0  0  0  0
   26.5038   31.7846   19.1445 H   0  0  0  0  0
   25.8367   30.1297   19.3918 H   0  0  0  0  0
   27.6587   29.6403   21.0064 H   0  0  0  0  0
   28.3161   31.2998   20.7638 H   0  0  0  0  0
   27.1127   31.3693   22.8128 H   0  0  0  0  0
   26.0428   32.1598   21.5983 H   0  0  0  0  0
   24.4128   32.0026   21.9144 H   0  0  0  0  0
   22.7516   30.1144   23.2723 H   0  0  0  0  0
   22.1238   32.1999   21.1249 H   0  0  0  0  0
   20.8824   31.3010   22.0714 H   0  0  0  0  0
   23.0411   32.9009   23.4778 H   0  0  0  0  0
   21.5711   33.7063   22.8179 H   0  0  0  0  0
   19.5832   31.6081   26.1507 H   0  0  0  0  0
   18.8574   32.4189   24.7282 H   0  0  0  0  0
   19.4900   30.7381   24.5879 H   0  0  0  0  0
  1  2  1  0  0  0
  2  3  2  0  0  0
  2  4  1  0  0  0
  4  5  2  0  0  0
  4  6  1  0  0  0
  6  7  1  0  0  0
  6 16  1  0  0  0
  7  8  4  0  0  0
  7 12  4  0  0  0
  8  9  4  0  0  0
  9 10  4  0  0  0
 10 11  4  0  0  0
 11 12  4  0  0  0
 12 13  1  0  0  0
 13 14  1  0  0  0
 13 15  2  0  0  0
 16 17  4  0  0  0
 16 21  4  0  0  0
 17 18  4  0  0  0
 18 19  4  0  0  0
 19 20  4  0  0  0
 19 24  1  0  0  0
 20 21  4  0  0  0
 21 22  1  0  0  0
 22 23  1  0  0  0
 24 25  1  0  0  0
 25 26  1  0  0  0
 25 30  1  0  0  0
 26 27  1  0  0  0
 27 28  2  0  0  0
 27 29  1  0  0  0
 30 31  2  0  0  0
 30 32  1  0  0  0
 32 33  1  0  0  0
 33 34  1  0  0  0
 34 35  1  0  0  0
 35 36  1  0  0  0
 36 37  1  0  0  0
 37 38  2  0  0  0
 37 39  1  0  0  0
 39 40  1  0  0  0
 40 41  1  0  0  0
 40 44  1  0  0  0
 41 42  1  0  0  0
 41 43  2  0  0  0
 44 45  1  0  0  0
 45 46  1  0  0  0
 46 47  1  0  0  0
  8 48  1  0  0  0
  9 49  1  0  0  0
 10 50  1  0  0  0
 11 51  1  0  0  0
 17 52  1  0  0  0
 18 53  1  0  0  0
 20 54  1  0  0  0
 22 55  1  0  0  0
 22 56  1  0  0  0
 23 57  1  0  0  0
 23 58  1  0  0  0
 23 59  1  0  0  0
 24 60  1  0  0  0
 24 61  1  0  0  0
 25 62  1  0  0  0
 26 63  1  0  0  0
 29 64  1  0  0  0
 29 65  1  0  0  0
 29 66  1  0  0  0
 32 67  1  0  0  0
 33 68  1  0  0  0
 33 69  1  0  0  0
 34 70  1  0  0  0
 34 71  1  0  0  0
 35 72  1  0  0  0
 35 73  1  0  0  0
 36 74  1  0  0  0
 36 75  1  0  0  0
 39 76  1  0  0  0
 40 77  1  0  0  0
 44 78  1  0  0  0
 44 79  1  0  0  0
 45 80  1  0  0  0
 45 81  1  0  0  0
 47 82  1  0  0  0
 47 83  1  0  0  0
 47 84  1  0  0  0
M  END
$$$$
