1urg_ligand
  -I-interpret- 

 45 46  0  0  0  0  0  0  0  0999 V2000
  -34.5870   -0.0020   41.6420 C   0  0  0  0  0
  -35.1750   -0.9660   42.6760 C   0  0  0  0  0
  -35.9110   -2.0900   41.9280 C   0  0  0  0  0
  -36.9940   -1.4960   41.0210 C   0  0  0  0  0
  -36.3750   -0.4520   40.0820 C   0  0  0  0  0
  -37.4080    0.2940   39.2580 C   0  0  0  0  0
  -33.6660   -0.7020   40.8590 O   0  0  0  0  0
  -34.1280   -1.5140   43.4690 O   0  0  0  0  0
  -36.4900   -3.0050   42.8430 O   0  0  0  0  0
  -37.5900   -2.5310   40.2520 O   0  0  0  0  0
  -35.6420    0.5390   40.8440 O   0  0  0  0  0
  -36.7770    1.0580   38.2410 O   0  0  0  0  0
  -29.7960   -0.3900   39.4060 C   0  0  0  0  0
  -29.9220   -0.4040   40.9290 C   0  0  0  0  0
  -31.3100   -0.9020   41.3240 C   0  0  0  0  0
  -32.3970   -0.0820   40.6280 C   0  0  0  0  0
  -32.1570   -0.0070   39.1130 C   0  0  0  0  0
  -33.1050    0.9870   38.4620 C   0  0  0  0  0
  -29.9460   -1.6770   38.9160 O   0  0  0  0  0
  -28.9350   -1.2630   41.4760 O   0  0  0  0  0
  -31.4810   -0.8170   42.7300 O   0  0  0  0  0
  -30.8140    0.4450   38.8290 O   0  0  0  0  0
  -33.0440    0.9060   37.0470 O   0  0  0  0  0
  -34.0707    0.8210   42.1578 H   0  0  0  0  0
  -35.8821   -0.4285   43.3249 H   0  0  0  0  0
  -35.1845   -2.6305   41.3035 H   0  0  0  0  0
  -37.7635   -1.0145   41.6422 H   0  0  0  0  0
  -35.6852   -0.9706   39.4000 H   0  0  0  0  0
  -37.9777    0.9673   39.9154 H   0  0  0  0  0
  -38.0926   -0.4310   38.7936 H   0  0  0  0  0
  -33.5132   -1.9714   42.9075 H   0  0  0  0  0
  -35.8107   -3.3669   43.3998 H   0  0  0  0  0
  -37.9727   -3.1765   40.8345 H   0  0  0  0  0
  -36.1868    1.6870   38.6391 H   0  0  0  0  0
  -28.8046   -0.0031   39.1277 H   0  0  0  0  0
  -29.7757    0.6147   41.3172 H   0  0  0  0  0
  -31.4072   -1.9536   41.0162 H   0  0  0  0  0
  -32.4015    0.9364   41.0438 H   0  0  0  0  0
  -32.3117   -1.0054   38.6779 H   0  0  0  0  0
  -32.8278    2.0044   38.7750 H   0  0  0  0  0
  -34.1324    0.7697   38.7894 H   0  0  0  0  0
  -29.2773   -2.2376   39.2916 H   0  0  0  0  0
  -29.0622   -2.1431   41.1416 H   0  0  0  0  0
  -32.3357   -1.1587   42.9652 H   0  0  0  0  0
  -32.1595    1.0970   36.7578 H   0  0  0  0  0
  1  2  1  0  0  0
  7  1  1  0  0  0
  1 11  1  0  0  0
  2  3  1  0  0  0
  2  8  1  0  0  0
  3  4  1  0  0  0
  3  9  1  0  0  0
  5  4  1  0  0  0
  4 10  1  0  0  0
  5  6  1  0  0  0
 11  5  1  0  0  0
  6 12  1  0  0  0
 16  7  1  0  0  0
 14 13  1  0  0  0
 13 19  1  0  0  0
 13 22  1  0  0  0
 15 14  1  0  0  0
 14 20  1  0  0  0
 15 16  1  0  0  0
 15 21  1  0  0  0
 16 17  1  0  0  0
 17 18  1  0  0  0
 17 22  1  0  0  0
 18 23  1  0  0  0
  1 24  1  0  0  0
  2 25  1  0  0  0
  3 26  1  0  0  0
  4 27  1  0  0  0
  5 28  1  0  0  0
  6 29  1  0  0  0
  6 30  1  0  0  0
  8 31  1  0  0  0
  9 32  1  0  0  0
 10 33  1  0  0  0
 12 34  1  0  0  0
 13 35  1  0  0  0
 14 36  1  0  0  0
 15 37  1  0  0  0
 16 38  1  0  0  0
 17 39  1  0  0  0
 18 40  1  0  0  0
 18 41  1  0  0  0
 19 42  1  0  0  0
 20 43  1  0  0  0
 21 44  1  0  0  0
 23 45  1  0  0  0
M  END
$$$$
