2arm_ligand
  -I-interpret- 

 44 46  0  0  0  0  0  0  0  0999 V2000
   14.3500   22.8900    1.4090 C   0  0  0  0  0
   13.9530   23.7980    0.3230 N   0  0  0  0  0
   14.2440   25.1580    0.3700 C   0  0  0  0  0
   13.9740   25.5840   -1.0310 C   0  0  0  0  0
   12.6670   24.8070   -1.2000 C   0  0  0  0  0
   12.6310   24.1650    0.1470 C   0  0  0  0  0
   11.7730   24.6900    1.2640 C   0  0  0  0  0
   12.4120   25.9400    1.7980 C   0  0  0  0  0
   13.9180   26.0490    1.5450 C   0  0  0  0  0
   11.5720   26.8250    2.6270 O   0  0  0  0  0
   10.3380   26.1920    3.1490 C   0  0  0  0  0
   10.4440   25.4730    4.1360 O   0  0  0  0  0
    8.9630   26.4510    2.5290 C   0  0  0  0  0
    7.8550   26.2850    3.5610 C   0  0  0  0  0
    7.9420   27.2370    4.6070 O   0  0  0  0  0
    8.6980   25.6100    1.3170 C   0  0  0  0  0
    8.3620   26.2330    0.1210 C   0  0  0  0  0
    8.1380   25.4890   -1.0280 C   0  0  0  0  0
    8.2400   24.1100   -0.9950 C   0  0  0  0  0
    8.5780   23.4790    0.1870 C   0  0  0  0  0
    8.8000   24.2230    1.3380 C   0  0  0  0  0
   14.0799   23.3325    2.3678 H   0  0  0  0  0
   13.8358   21.9363    1.2897 H   0  0  0  0  0
   15.4276   22.7304    1.3718 H   0  0  0  0  0
   15.2680   25.3290    0.7021 H   0  0  0  0  0
   14.7578   25.3751   -1.7591 H   0  0  0  0  0
   13.9237   26.6583   -1.2081 H   0  0  0  0  0
   12.6348   24.1219   -2.0472 H   0  0  0  0  0
   11.7943   25.4074   -1.4569 H   0  0  0  0  0
   11.9531   23.3131    0.2002 H   0  0  0  0  0
   11.6893   23.9444    2.0547 H   0  0  0  0  0
   10.7708   24.9091    0.8957 H   0  0  0  0  0
   12.4852   26.9936    1.5286 H   0  0  0  0  0
   14.1957   27.0810    1.3306 H   0  0  0  0  0
   14.4772   25.7377    2.4273 H   0  0  0  0  0
    8.9701   27.4872    2.1908 H   0  0  0  0  0
    7.9503   25.2921    4.0006 H   0  0  0  0  0
    6.8999   26.4268    3.0553 H   0  0  0  0  0
    8.7840   27.1395    5.0577 H   0  0  0  0  0
    8.2735   27.3188    0.0855 H   0  0  0  0  0
    7.8808   25.9926   -1.9598 H   0  0  0  0  0
    8.0549   23.5247   -1.8957 H   0  0  0  0  0
    8.6707   22.3933    0.2158 H   0  0  0  0  0
    9.0568   23.7150    2.2675 H   0  0  0  0  0
  1  2  1  0  0  0
  2  3  1  0  0  0
  2  6  1  0  0  0
  3  4  1  0  0  0
  3  9  1  0  0  0
  4  5  1  0  0  0
  5  6  1  0  0  0
  6  7  1  0  0  0
  7  8  1  0  0  0
  8  9  1  0  0  0
  8 10  1  0  0  0
 10 11  1  0  0  0
 11 12  2  0  0  0
 11 13  1  0  0  0
 13 14  1  0  0  0
 13 16  1  0  0  0
 14 15  1  0  0  0
 16 17  4  0  0  0
 16 21  4  0  0  0
 17 18  4  0  0  0
 18 19  4  0  0  0
 19 20  4  0  0  0
 20 21  4  0  0  0
  1 22  1  0  0  0
  1 23  1  0  0  0
  1 24  1  0  0  0
  3 25  1  0  0  0
  4 26  1  0  0  0
  4 27  1  0  0  0
  5 28  1  0  0  0
  5 29  1  0  0  0
  6 30  1  0  0  0
  7 31  1  0  0  0
  7 32  1  0  0  0
  8 33  1  0  0  0
  9 34  1  0  0  0
  9 35  1  0  0  0
 13 36  1  0  0  0
 14 37  1  0  0  0
 14 38  1  0  0  0
 15 39  1  0  0  0
 17 40  1  0  0  0
 18 41  1  0  0  0
 19 42  1  0  0  0
 20 43  1  0  0  0
 21 44  1  0  0  0
M  END
$$$$
