### 
### Created by X-TOOL on Sun Jun  3 11:16:45 2007
### 

@<TRIPOS>MOLECULE
2arm_ligand
   44    46     1     0     0
SMALL
GAST_HUCK


@<TRIPOS>ATOM
      1 C10        14.3500   22.8900    1.4090 C.3       1 SUB1       -0.012
      2 N          13.9530   23.7980    0.3230 N.3       1 SUB1       -0.299
      3 C11        14.2440   25.1580    0.3700 C.3       1 SUB1        0.013
      4 C17        13.9740   25.5840   -1.0310 C.3       1 SUB1       -0.036
      5 C16        12.6670   24.8070   -1.2000 C.3       1 SUB1       -0.036
      6 C15        12.6310   24.1650    0.1470 C.3       1 SUB1        0.013
      7 C14        11.7730   24.6900    1.2640 C.3       1 SUB1       -0.006
      8 C13        12.4120   25.9400    1.7980 C.3       1 SUB1        0.091
      9 C12        13.9180   26.0490    1.5450 C.3       1 SUB1       -0.006
     10 O2         11.5720   26.8250    2.6270 O.3       1 SUB1       -0.272
     11 C7         10.3380   26.1920    3.1490 C.2       1 SUB1        0.251
     12 O3         10.4440   25.4730    4.1360 O.2       1 SUB1       -0.367
     13 C9          8.9630   26.4510    2.5290 C.3       1 SUB1        0.116
     14 C8          7.8550   26.2850    3.5610 C.3       1 SUB1        0.074
     15 OH          7.9420   27.2370    4.6070 O.3       1 SUB1       -0.390
     16 C6          8.6980   25.6100    1.3170 C.ar      1 SUB1       -0.018
     17 C5          8.3620   26.2330    0.1210 C.ar      1 SUB1       -0.058
     18 C4          8.1380   25.4890   -1.0280 C.ar      1 SUB1       -0.068
     19 C3          8.2400   24.1100   -0.9950 C.ar      1 SUB1       -0.068
     20 C2          8.5780   23.4790    0.1870 C.ar      1 SUB1       -0.068
     21 C1          8.8000   24.2230    1.3380 C.ar      1 SUB1       -0.058
     22 H          14.0799   23.3325    2.3678 H         1 SUB1        0.039
     23 H          13.8358   21.9363    1.2897 H         1 SUB1        0.039
     24 H          15.4276   22.7304    1.3718 H         1 SUB1        0.039
     25 H          15.2680   25.3290    0.7021 H         1 SUB1        0.046
     26 H          14.7578   25.3751   -1.7591 H         1 SUB1        0.028
     27 H          13.9237   26.6583   -1.2081 H         1 SUB1        0.028
     28 H          12.6348   24.1219   -2.0472 H         1 SUB1        0.028
     29 H          11.7943   25.4074   -1.4569 H         1 SUB1        0.028
     30 H          11.9531   23.3131    0.2002 H         1 SUB1        0.046
     31 H          11.6893   23.9444    2.0547 H         1 SUB1        0.031
     32 H          10.7708   24.9091    0.8957 H         1 SUB1        0.031
     33 H          12.4852   26.9936    1.5286 H         1 SUB1        0.065
     34 H          14.1957   27.0810    1.3306 H         1 SUB1        0.031
     35 H          14.4772   25.7377    2.4273 H         1 SUB1        0.031
     36 H           8.9701   27.4872    2.1908 H         1 SUB1        0.073
     37 H           7.9503   25.2921    4.0006 H         1 SUB1        0.061
     38 H           6.8999   26.4268    3.0553 H         1 SUB1        0.061
     39 H           8.7840   27.1395    5.0577 H         1 SUB1        0.210
     40 H           8.2735   27.3188    0.0855 H         1 SUB1        0.056
     41 H           7.8808   25.9926   -1.9598 H         1 SUB1        0.060
     42 H           8.0549   23.5247   -1.8957 H         1 SUB1        0.056
     43 H           8.6707   22.3933    0.2158 H         1 SUB1        0.060
     44 H           9.0568   23.7150    2.2675 H         1 SUB1        0.056
@<TRIPOS>BOND
     1    1    2 1  
     2    2    3 1  
     3    2    6 1  
     4    3    4 1  
     5    3    9 1  
     6    4    5 1  
     7    5    6 1  
     8    6    7 1  
     9    7    8 1  
    10    8    9 1  
    11    8   10 1  
    12   10   11 1  
    13   11   12 2  
    14   11   13 1  
    15   13   14 1  
    16   13   16 1  
    17   14   15 1  
    18   16   17 ar 
    19   16   21 ar 
    20   17   18 ar 
    21   18   19 ar 
    22   19   20 ar 
    23   20   21 ar 
    24    1   22 1  
    25    1   23 1  
    26    1   24 1  
    27    3   25 1  
    28    4   26 1  
    29    4   27 1  
    30    5   28 1  
    31    5   29 1  
    32    6   30 1  
    33    7   31 1  
    34    7   32 1  
    35    8   33 1  
    36    9   34 1  
    37    9   35 1  
    38   13   36 1  
    39   14   37 1  
    40   14   38 1  
    41   15   39 1  
    42   17   40 1  
    43   18   41 1  
    44   19   42 1  
    45   20   43 1  
    46   21   44 1  
@<TRIPOS>SUBSTRUCTURE
     1 SUB1        1 GROUP

