2fzk_ligand
  -I-interpret- 

 34 34  0  0  0  0  0  0  0  0999 V2000
   37.0020   26.3050   20.5930 O   0  5  0  0  0
   38.2680   27.0160   21.2910 P   0  0  0  0  0
   39.5190   26.6380   20.3470 O   0  5  0  0  0
   38.4320   26.5620   22.6910 O   0  0  0  0  0
   38.0400   28.8080   21.1310 C   0  0  0  0  0
   37.6120   29.0480   19.6920 C   0  0  0  0  0
   36.4160   28.8910   19.3890 O   0  0  0  0  0
   38.5210   29.4460   18.8040 N   0  0  0  0  0
   39.8020   29.7760   18.9440 C   0  0  0  0  0
   40.5450   29.8130   17.7720 C   0  0  0  0  0
   40.4700   29.8990   20.1670 C   0  0  0  0  0
   41.8500   30.0980   20.1920 C   0  0  0  0  0
   42.5870   30.4070   21.4990 C   0  0  0  0  0
   43.8350   30.3480   21.4850 O   0  0  0  0  0
   41.9070   30.7180   22.5050 O   0  5  0  0  0
   42.5840   30.1070   19.0110 C   0  0  0  0  0
   41.9340   29.9490   17.7900 C   0  0  0  0  0
   42.6740   29.6940   16.7170 N   0  0  0  0  0
   42.1440   29.2480   15.5770 C   0  0  0  0  0
   40.9470   28.9990   15.4290 O   0  0  0  0  0
   43.1510   29.0040   14.4490 C   0  0  0  0  0
   42.3240   28.7270   12.8580 P   0  0  0  0  0
   41.3230   27.4810   13.0950 O   0  5  0  0  0
   43.4530   28.2010   11.8310 O   0  5  0  0  0
   41.6370   29.9430   12.3570 O   0  0  0  0  0
   38.9588   29.3457   21.3649 H   0  0  0  0  0
   37.2910   29.1753   21.8326 H   0  0  0  0  0
   38.1735   29.5090   17.8471 H   0  0  0  0  0
   40.0310   29.7339   16.8141 H   0  0  0  0  0
   39.9114   29.8392   21.1011 H   0  0  0  0  0
   43.6657   30.2375   19.0411 H   0  0  0  0  0
   43.6817   29.8443   16.7663 H   0  0  0  0  0
   43.7313   28.1143   14.6936 H   0  0  0  0  0
   43.7842   29.8865   14.3575 H   0  0  0  0  0
  1  2  1  0  0  0
  2  3  1  0  0  0
  2  4  2  0  0  0
  2  5  1  0  0  0
  5  6  1  0  0  0
  6  7  2  0  0  0
  6  8  1  0  0  0
  8  9  1  0  0  0
  9 10  4  0  0  0
  9 11  4  0  0  0
 10 17  4  0  0  0
 11 12  4  0  0  0
 12 13  1  0  0  0
 12 16  4  0  0  0
 13 14  2  0  0  0
 13 15  1  0  0  0
 16 17  4  0  0  0
 17 18  1  0  0  0
 18 19  1  0  0  0
 19 20  2  0  0  0
 19 21  1  0  0  0
 21 22  1  0  0  0
 22 23  1  0  0  0
 22 24  1  0  0  0
 22 25  2  0  0  0
  5 26  1  0  0  0
  5 27  1  0  0  0
  8 28  1  0  0  0
 10 29  1  0  0  0
 11 30  1  0  0  0
 16 31  1  0  0  0
 18 32  1  0  0  0
 21 33  1  0  0  0
 21 34  1  0  0  0
M  END
$$$$
