### 
### Created by X-TOOL on Sun Jun  3 12:35:01 2007
### 

@<TRIPOS>MOLECULE
2fzk_ligand
   34    34     1     0     0
SMALL
GAST_HUCK


@<TRIPOS>ATOM
      1 OAD        37.0020   26.3050   20.5930 O.2       1 SUB1       -0.229
      2 PAX        38.2680   27.0160   21.2910 P.3       1 SUB1        0.494
      3 OAH        39.5190   26.6380   20.3470 O.2       1 SUB1       -0.229
      4 OAG        38.4320   26.5620   22.6910 O.2       1 SUB1       -0.229
      5 CAN        38.0400   28.8080   21.1310 C.3       1 SUB1        0.195
      6 CAS        37.6120   29.0480   19.6920 C.2       1 SUB1        0.264
      7 OAB        36.4160   28.8910   19.3890 O.2       1 SUB1       -0.358
      8 NAP        38.5210   29.4460   18.8040 N.am      1 SUB1       -0.191
      9 CAU        39.8020   29.7760   18.9440 C.ar      1 SUB1        0.143
     10 CAK        40.5450   29.8130   17.7720 C.ar      1 SUB1        0.038
     11 CAL        40.4700   29.8990   20.1670 C.ar      1 SUB1        0.045
     12 CAW        41.8500   30.0980   20.1920 C.ar      1 SUB1        0.070
     13 CAR        42.5870   30.4070   21.4990 C.2       1 SUB1        0.075
     14 OAA        43.8350   30.3480   21.4850 O.2       1 SUB1       -0.559
     15 OAF        41.9070   30.7180   22.5050 O.2       1 SUB1       -0.559
     16 CAM        42.5840   30.1070   19.0110 C.ar      1 SUB1        0.045
     17 CAV        41.9340   29.9490   17.7900 C.ar      1 SUB1        0.143
     18 NAQ        42.6740   29.6940   16.7170 N.am      1 SUB1       -0.191
     19 CAT        42.1440   29.2480   15.5770 C.2       1 SUB1        0.264
     20 OAC        40.9470   28.9990   15.4290 O.2       1 SUB1       -0.358
     21 CAO        43.1510   29.0040   14.4490 C.3       1 SUB1        0.195
     22 PAY        42.3240   28.7270   12.8580 P.3       1 SUB1        0.494
     23 OAI        41.3230   27.4810   13.0950 O.2       1 SUB1       -0.229
     24 OAE        43.4530   28.2010   11.8310 O.2       1 SUB1       -0.229
     25 OAJ        41.6370   29.9430   12.3570 O.2       1 SUB1       -0.229
     26 H          38.9588   29.3457   21.3649 H         1 SUB1        0.077
     27 H          37.2910   29.1753   21.8326 H         1 SUB1        0.077
     28 H          38.1735   29.5090   17.8471 H         1 SUB1        0.275
     29 H          40.0310   29.7339   16.8141 H         1 SUB1        0.049
     30 H          39.9114   29.8392   21.1011 H         1 SUB1        0.110
     31 H          43.6657   30.2375   19.0411 H         1 SUB1        0.110
     32 H          43.6817   29.8443   16.7663 H         1 SUB1        0.275
     33 H          43.7313   28.1143   14.6936 H         1 SUB1        0.077
     34 H          43.7842   29.8865   14.3575 H         1 SUB1        0.077
@<TRIPOS>BOND
     1    1    2 2  
     2    2    3 2  
     3    2    4 2  
     4    2    5 1  
     5    5    6 1  
     6    6    7 2  
     7    6    8 am 
     8    8    9 1  
     9    9   10 ar 
    10    9   11 ar 
    11   10   17 ar 
    12   11   12 ar 
    13   12   13 1  
    14   12   16 ar 
    15   13   14 2  
    16   13   15 2  
    17   16   17 ar 
    18   17   18 1  
    19   18   19 am 
    20   19   20 2  
    21   19   21 1  
    22   21   22 1  
    23   22   23 2  
    24   22   24 2  
    25   22   25 2  
    26    5   26 1  
    27    5   27 1  
    28    8   28 1  
    29   10   29 1  
    30   11   30 1  
    31   16   31 1  
    32   18   32 1  
    33   21   33 1  
    34   21   34 1  
@<TRIPOS>SUBSTRUCTURE
     1 SUB1        1 GROUP

