1rle_ligand
  -I-interpret- 

 44 46  0  0  0  0  0  0  0  0999 V2000
  -10.8030  -13.0220  -19.7100 P   0  0  0  0  0
  -12.0230  -12.3940  -20.6480 O   0  0  0  0  0
   -9.6590  -13.7100  -21.0400 S   0  0  0  0  0
  -10.4370  -11.8200  -18.9150 O   0  0  0  0  0
  -11.2310  -14.2840  -19.0130 O   0  5  0  0  0
  -13.3970  -11.6120  -20.0340 P   0  0  0  0  0
  -14.3220  -12.7510  -19.9230 O   0  0  0  0  0
  -13.2830  -10.8020  -18.7800 O   0  5  0  0  0
  -14.9640  -10.7780  -22.1940 P   0  0  0  0  0
  -14.5450  -11.8750  -23.1220 O   0  5  0  0  0
  -16.2490  -10.8110  -21.4360 O   0  0  0  0  0
  -13.8450  -10.5280  -21.1480 O   0  0  0  0  0
  -14.9680   -9.3710  -23.0450 O   0  0  0  0  0
  -15.3440   -8.1070  -22.4270 C   0  0  0  0  0
  -14.6520   -6.9810  -23.1640 C   0  0  0  0  0
  -14.7250   -5.7930  -22.3150 O   0  0  0  0  0
  -13.1140   -7.1830  -23.3360 C   0  0  0  0  0
  -12.7210   -6.3640  -24.4630 O   0  0  0  0  0
  -12.4830   -6.6130  -22.0040 C   0  0  0  0  0
  -11.2020   -5.9870  -22.2010 O   0  0  0  0  0
  -13.5510   -5.5870  -21.4840 C   0  0  0  0  0
  -14.0320   -5.8450  -20.0910 N   0  0  0  0  0
  -14.0810   -6.9760  -19.2960 C   0  0  0  0  0
  -14.5740   -6.8180  -18.1080 N   0  0  0  0  0
  -14.8870   -5.4580  -18.0970 C   0  0  0  0  0
  -15.4700   -4.6920  -17.0270 C   0  0  0  0  0
  -15.7670   -5.1900  -15.9520 O   0  0  0  0  0
  -15.6230   -3.3510  -17.4170 N   0  0  0  0  0
  -15.2770   -2.7850  -18.6580 C   0  0  0  0  0
  -15.4790   -1.5000  -18.8850 N   0  0  0  0  0
  -14.7250   -3.5260  -19.6620 N   0  0  0  0  0
  -14.5600   -4.8560  -19.3060 C   0  0  0  0  0
  -15.0336   -8.1043  -21.3717 H   0  0  0  0  0
  -16.4342   -7.9747  -22.4889 H   0  0  0  0  0
  -15.1347   -6.8228  -24.1397 H   0  0  0  0  0
  -12.8440   -8.2375  -23.4940 H   0  0  0  0  0
  -11.7864   -6.4542  -24.6080 H   0  0  0  0  0
  -12.3584   -7.4281  -21.2759 H   0  0  0  0  0
  -11.2953   -5.2611  -22.8067 H   0  0  0  0  0
  -13.1600   -4.5622  -21.5674 H   0  0  0  0  0
  -13.7258   -7.9433  -19.6482 H   0  0  0  0  0
  -16.0206   -2.7320  -16.7397 H   0  0  0  0  0
  -15.2237   -1.0915  -19.7954 H   0  0  0  0  0
  -15.8919   -0.9062  -18.1517 H   0  0  0  0  0
  2  1  1  0  0  0
  1  3  2  0  0  0
  1  4  2  0  0  0
  1  5  1  0  0  0
  6  2  1  0  0  0
  6  7  2  0  0  0
  6  8  1  0  0  0
 12  6  1  0  0  0
  9 10  1  0  0  0
  9 11  2  0  0  0
  9 12  1  0  0  0
  9 13  1  0  0  0
 13 14  1  0  0  0
 14 15  1  0  0  0
 15 16  1  0  0  0
 15 17  1  0  0  0
 16 21  1  0  0  0
 17 18  1  0  0  0
 17 19  1  0  0  0
 19 20  1  0  0  0
 19 21  1  0  0  0
 21 22  1  0  0  0
 22 23  1  0  0  0
 22 32  1  0  0  0
 23 24  2  0  0  0
 24 25  1  0  0  0
 25 26  1  0  0  0
 25 32  2  0  0  0
 26 27  2  0  0  0
 26 28  1  0  0  0
 28 29  1  0  0  0
 29 30  1  0  0  0
 29 31  2  0  0  0
 31 32  1  0  0  0
 14 33  1  0  0  0
 14 34  1  0  0  0
 15 35  1  0  0  0
 17 36  1  0  0  0
 18 37  1  0  0  0
 19 38  1  0  0  0
 20 39  1  0  0  0
 21 40  1  0  0  0
 23 41  1  0  0  0
 28 42  1  0  0  0
 30 43  1  0  0  0
 30 44  1  0  0  0
M  END
$$$$
