### 
### Created by X-TOOL on Tue Oct 25 00:59:33 2005
### 

@<TRIPOS>MOLECULE
1rle_ligand
   44    46     1     0     0
SMALL
GAST_HUCK


@<TRIPOS>ATOM
      1 PG        -10.8030  -13.0220  -19.7100 P.3       1 SUB1        0.148
      2 O3B       -12.0230  -12.3940  -20.6480 O.3       1 SUB1       -0.218
      3 S1G        -9.6590  -13.7100  -21.0400 S.2       1 SUB1       -0.530
      4 O2G       -10.4370  -11.8200  -18.9150 O.co2     1 SUB1       -0.486
      5 O3G       -11.2310  -14.2840  -19.0130 O.co2     1 SUB1       -0.486
      6 PB        -13.3970  -11.6120  -20.0340 P.3       1 SUB1        0.358
      7 O1B       -14.3220  -12.7510  -19.9230 O.co2     1 SUB1       -0.532
      8 O2B       -13.2830  -10.8020  -18.7800 O.co2     1 SUB1       -0.532
      9 PA        -14.9640  -10.7780  -22.1940 P.3       1 SUB1        0.383
     10 O1A       -14.5450  -11.8750  -23.1220 O.co2     1 SUB1       -0.457
     11 O2A       -16.2490  -10.8110  -21.4360 O.co2     1 SUB1       -0.457
     12 O3A       -13.8450  -10.5280  -21.1480 O.3       1 SUB1       -0.182
     13 O5        -14.9680   -9.3710  -23.0450 O.3       1 SUB1       -0.252
     14 C5        -15.3440   -8.1070  -22.4270 C.3       1 SUB1        0.111
     15 C4        -14.6520   -6.9810  -23.1640 C.3       1 SUB1        0.119
     16 O4        -14.7250   -5.7930  -22.3150 O.3       1 SUB1       -0.336
     17 C3        -13.1140   -7.1830  -23.3360 C.3       1 SUB1        0.115
     18 O3        -12.7210   -6.3640  -24.4630 O.3       1 SUB1       -0.386
     19 C2        -12.4830   -6.6130  -22.0040 C.3       1 SUB1        0.139
     20 O2        -11.2020   -5.9870  -22.2010 O.3       1 SUB1       -0.384
     21 C1        -13.5510   -5.5870  -21.4840 C.3       1 SUB1        0.199
     22 N9        -14.0320   -5.8450  -20.0910 N.pl3     1 SUB1       -0.210
     23 C8        -14.0810   -6.9760  -19.2960 C.2       1 SUB1        0.096
     24 N7        -14.5740   -6.8180  -18.1080 N.2       1 SUB1       -0.324
     25 C5        -14.8870   -5.4580  -18.0970 C.2       1 SUB1        0.093
     26 C6        -15.4700   -4.6920  -17.0270 C.2       1 SUB1        0.213
     27 O6        -15.7670   -5.1900  -15.9520 O.2       1 SUB1       -0.409
     28 N1        -15.6230   -3.3510  -17.4170 N.am      1 SUB1       -0.184
     29 C2        -15.2770   -2.7850  -18.6580 C.2       1 SUB1        0.234
     30 N2        -15.4790   -1.5000  -18.8850 N.pl3     1 SUB1       -0.281
     31 N3        -14.7250   -3.5260  -19.6620 N.2       1 SUB1       -0.276
     32 C4        -14.5600   -4.8560  -19.3060 C.2       1 SUB1        0.116
     33 H141      -15.0336   -8.1043  -21.3717 H         1 SUB1        0.066
     34 H142      -16.4342   -7.9747  -22.4889 H         1 SUB1        0.066
     35 H151      -15.1347   -6.8228  -24.1397 H         1 SUB1        0.065
     36 H171      -12.8440   -8.2375  -23.4940 H         1 SUB1        0.065
     37 H181      -11.7864   -6.4542  -24.6080 H         1 SUB1        0.210
     38 H191      -12.3584   -7.4281  -21.2759 H         1 SUB1        0.068
     39 H201      -11.2953   -5.2611  -22.8067 H         1 SUB1        0.210
     40 H211      -13.1600   -4.5622  -21.5674 H         1 SUB1        0.100
     41 H231      -13.7258   -7.9433  -19.6482 H         1 SUB1        0.118
     42 H281      -16.0206   -2.7320  -16.7397 H         1 SUB1        0.252
     43 H301      -15.2237   -1.0915  -19.7954 H         1 SUB1        0.190
     44 H302      -15.8919   -0.9062  -18.1517 H         1 SUB1        0.190
@<TRIPOS>BOND
     1    2    1 1  
     2    1    3 2  
     3    1    4 2  
     4    1    5 2  
     5    6    2 1  
     6    6    7 2  
     7    6    8 2  
     8   12    6 1  
     9    9   10 2  
    10    9   11 2  
    11    9   12 1  
    12    9   13 1  
    13   13   14 1  
    14   14   15 1  
    15   15   16 1  
    16   15   17 1  
    17   16   21 1  
    18   17   18 1  
    19   17   19 1  
    20   19   20 1  
    21   19   21 1  
    22   21   22 1  
    23   22   23 1  
    24   22   32 1  
    25   23   24 2  
    26   24   25 1  
    27   25   26 1  
    28   25   32 2  
    29   26   27 2  
    30   26   28 am 
    31   28   29 1  
    32   29   30 1  
    33   29   31 2  
    34   31   32 1  
    35   14   33 1  
    36   14   34 1  
    37   15   35 1  
    38   17   36 1  
    39   18   37 1  
    40   19   38 1  
    41   20   39 1  
    42   21   40 1  
    43   23   41 1  
    44   28   42 1  
    45   30   43 1  
    46   30   44 1  
@<TRIPOS>SUBSTRUCTURE
     1 SUB1        1 GROUP

