### 
### Created by X-TOOL on Mon Oct 24 23:16:59 2005
### 

@<TRIPOS>MOLECULE
1v2t_ligand
   55    56     1     0     0
SMALL
GAST_HUCK


@<TRIPOS>ATOM
      1 N12        -2.2950   17.9690   16.9110 N.am      1 SUB1       -0.261
      2 C13        -3.5390   17.3060   17.3910 C.3       1 SUB1        0.152
      3 C30        -3.1940   16.3550   18.5510 C.3       1 SUB1        0.023
      4 C14        -4.7250   18.2880   17.8240 C.2       1 SUB1        0.261
      5 O17        -5.8640   18.0820   17.3530 O.2       1 SUB1       -0.368
      6 O15        -4.4480   19.3740   18.7300 O.3       1 SUB1       -0.278
      7 C16        -3.1410   19.7050   19.3430 C.3       1 SUB1        0.066
      8 C21        -2.4180   15.0850   18.2160 C.ar      1 SUB1       -0.034
      9 C22        -1.3990   14.6560   19.1030 C.ar      1 SUB1       -0.060
     10 C23        -0.6460   13.4820   18.8380 C.ar      1 SUB1       -0.064
     11 C24        -0.9150   12.7250   17.6680 C.ar      1 SUB1       -0.014
     12 C25        -1.9500   13.1110   16.7150 C.ar      1 SUB1        0.179
     13 C26        -2.6950   14.3160   17.0230 C.ar      1 SUB1       -0.005
     14 C27        -2.2030   12.3380   15.5590 C.cat     1 SUB1        0.315
     15 N28        -2.6820   12.8080   14.4160 N.pl3     1 SUB1       -0.200
     16 N29        -2.0000   11.0200   15.4740 N.pl3     1 SUB1       -0.200
     17 C11        -2.2320   18.7750   15.8390 C.2       1 SUB1        0.197
     18 C10        -0.9450   19.5430   15.6260 C.3       1 SUB1        0.116
     19 N9         -0.6660   19.8780   14.2110 N.am      1 SUB1       -0.229
     20 O20        -3.1560   18.9130   15.0350 O.2       1 SUB1       -0.395
     21 C1          3.8860   24.4330   16.2500 C.3       1 SUB1       -0.031
     22 C2          2.8060   23.6850   15.5830 C.ar      1 SUB1       -0.046
     23 C3          3.0340   22.9510   14.3640 C.ar      1 SUB1       -0.059
     24 C4          1.9500   22.2470   13.7500 C.ar      1 SUB1       -0.042
     25 C5          0.6590   22.3060   14.3810 C.ar      1 SUB1        0.101
     26 C6          0.4430   23.0360   15.5930 C.ar      1 SUB1       -0.042
     27 C7          1.5160   23.7200   16.1840 C.ar      1 SUB1       -0.059
     28 S8         -0.7030   21.4820   13.7020 S.o2      1 SUB1        0.067
     29 O18        -0.7080   21.4480   12.1190 O.2       1 SUB1       -0.151
     30 O19        -2.0190   22.0410   14.3330 O.2       1 SUB1       -0.151
     31 H11        -1.4508   17.8030   17.4207 H         1 SUB1        0.189
     32 H21        -3.9195   16.6993   16.5560 H         1 SUB1        0.084
     33 H31        -4.1415   16.0482   19.0180 H         1 SUB1        0.047
     34 H32        -2.5951   16.9248   19.2767 H         1 SUB1        0.047
     35 H71        -3.2519   20.5892   19.9879 H         1 SUB1        0.058
     36 H72        -2.4081   19.9185   18.5510 H         1 SUB1        0.058
     37 H73        -2.7923   18.8532   19.9454 H         1 SUB1        0.058
     38 H91        -1.1916   15.2329   19.9970 H         1 SUB1        0.056
     39 H101        0.1301   13.1655   19.5255 H         1 SUB1        0.060
     40 H111       -0.3326   11.8311   17.4763 H         1 SUB1        0.061
     41 H131       -3.4745   14.6468   16.3462 H         1 SUB1        0.060
     42 H151       -2.8363   12.1709   13.6215 H         1 SUB1        0.192
     43 H152       -2.9000   13.8103   14.3223 H         1 SUB1        0.192
     44 H161       -1.6283   10.5029   16.2835 H         1 SUB1        0.192
     45 H162       -2.2153   10.5211   14.5989 H         1 SUB1        0.192
     46 H181       -0.1123   18.9335   16.0069 H         1 SUB1        0.072
     47 H182       -1.0042   20.4810   16.1975 H         1 SUB1        0.072
     48 H191       -0.4555   19.1510   13.5574 H         1 SUB1        0.170
     49 H211        4.8190   24.3172   15.6790 H         1 SUB1        0.039
     50 H212        4.0283   24.0419   17.2682 H         1 SUB1        0.039
     51 H213        3.6171   25.4984   16.3007 H         1 SUB1        0.039
     52 H231        4.0205   22.9323   13.9150 H         1 SUB1        0.056
     53 H241        2.0978   21.6850   12.8349 H         1 SUB1        0.062
     54 H261       -0.5398   23.0602   16.0498 H         1 SUB1        0.062
     55 H271        1.3622   24.2769   17.1012 H         1 SUB1        0.056
@<TRIPOS>BOND
     1    1    2 1  
     2   17    1 am 
     3    2    3 1  
     4    2    4 1  
     5    3    8 1  
     6    4    5 2  
     7    4    6 1  
     8    6    7 1  
     9    8    9 ar 
    10    8   13 ar 
    11    9   10 ar 
    12   10   11 ar 
    13   12   11 ar 
    14   13   12 ar 
    15   12   14 1  
    16   14   15 1  
    17   14   16 1  
    18   18   17 1  
    19   17   20 2  
    20   19   18 1  
    21   28   19 am 
    22   22   21 1  
    23   23   22 ar 
    24   22   27 ar 
    25   24   23 ar 
    26   25   24 ar 
    27   25   26 ar 
    28   25   28 1  
    29   26   27 ar 
    30   28   29 2  
    31   28   30 2  
    32    1   31 1  
    33    2   32 1  
    34    3   33 1  
    35    3   34 1  
    36    7   35 1  
    37    7   36 1  
    38    7   37 1  
    39    9   38 1  
    40   10   39 1  
    41   11   40 1  
    42   13   41 1  
    43   15   42 1  
    44   15   43 1  
    45   16   44 1  
    46   16   45 1  
    47   18   46 1  
    48   18   47 1  
    49   19   48 1  
    50   21   49 1  
    51   21   50 1  
    52   21   51 1  
    53   23   52 1  
    54   24   53 1  
    55   26   54 1  
    56   27   55 1  
@<TRIPOS>SUBSTRUCTURE
     1 SUB1        1 GROUP

