### 
### Created by X-TOOL on Tue Oct 25 02:04:20 2005
### 

@<TRIPOS>MOLECULE
1fj4_ligand
   28    28     1     0     0
SMALL
GAST_HUCK


@<TRIPOS>ATOM
      1 S1          6.2170  -19.4860   -0.4880 S.3       1 SUB1       -0.142
      2 C1          7.0270  -18.5720    0.7860 C.2       1 SUB1        0.194
      3 C2          6.6290  -19.0160    2.0970 C.2       1 SUB1        0.064
      4 C3          5.7900  -20.0690    2.0550 C.2       1 SUB1        0.043
      5 C4          5.3860  -20.6510    0.7160 C.3       1 SUB1       -0.001
      6 C5          3.8840  -20.6960    0.4040 C.2       1 SUB1       -0.118
      7 C6          3.1800  -20.8520   -0.7410 C.2       1 SUB1       -0.018
      8 C7          1.6930  -20.7190   -0.6320 C.2       1 SUB1       -0.007
      9 C8          0.7810  -20.8290   -1.6020 C.2       1 SUB1       -0.053
     10 O1          7.8230  -17.6860    0.5180 O.2       1 SUB1       -0.354
     11 C9          7.1190  -18.3340    3.3280 C.3       1 SUB1       -0.005
     12 O2          5.2870  -20.6170    3.1700 O.3       1 SUB1       -0.350
     13 C10         6.0340  -22.0480    0.5840 C.3       1 SUB1       -0.111
     14 C11         3.7580  -21.1460   -2.0940 C.3       1 SUB1       -0.005
     15 H61         3.2555  -20.5781    1.2855 H         1 SUB1        0.034
     16 H81         1.3059  -20.5057    0.3633 H         1 SUB1        0.076
     17 H91        -0.2763  -20.7062   -1.3718 H         1 SUB1        0.098
     18 H92         1.0949  -21.0414   -2.6229 H         1 SUB1        0.098
     19 H111        7.7891  -17.5110    3.0388 H         1 SUB1        0.049
     20 H112        6.2692  -17.9225    3.8924 H         1 SUB1        0.049
     21 H113        7.6760  -19.0459    3.9548 H         1 SUB1        0.049
     22 H121        5.6237  -20.1546    3.9285 H         1 SUB1        0.248
     23 H131        5.5478  -22.7365    1.2908 H         1 SUB1        0.001
     24 H132        5.8979  -22.4295   -0.4386 H         1 SUB1        0.001
     25 H133        7.1062  -21.9882    0.8224 H         1 SUB1        0.001
     26 H141        4.8526  -21.2133   -2.0089 H         1 SUB1        0.053
     27 H142        3.3683  -22.1041   -2.4683 H         1 SUB1        0.053
     28 H143        3.5023  -20.3377   -2.7948 H         1 SUB1        0.053
@<TRIPOS>BOND
     1    1    2 1  
     2    1    5 1  
     3    2    3 1  
     4    2   10 2  
     5    3    4 2  
     6    3   11 1  
     7    4    5 1  
     8    4   12 1  
     9    5    6 1  
    10    5   13 1  
    11    6    7 2  
    12    7    8 1  
    13    7   14 1  
    14    8    9 2  
    15    6   15 1  
    16    8   16 1  
    17    9   17 1  
    18    9   18 1  
    19   11   19 1  
    20   11   20 1  
    21   11   21 1  
    22   12   22 1  
    23   13   23 1  
    24   13   24 1  
    25   13   25 1  
    26   14   26 1  
    27   14   27 1  
    28   14   28 1  
@<TRIPOS>SUBSTRUCTURE
     1 SUB1        1 GROUP

