1fj4_ligand
  -I-interpret- 

 28 28  0  0  0  0  0  0  0  0999 V2000
    6.2170  -19.4860   -0.4880 S   0  0  0  0  0
    7.0270  -18.5720    0.7860 C   0  0  0  0  0
    6.6290  -19.0160    2.0970 C   0  0  0  0  0
    5.7900  -20.0690    2.0550 C   0  0  0  0  0
    5.3860  -20.6510    0.7160 C   0  0  0  0  0
    3.8840  -20.6960    0.4040 C   0  0  0  0  0
    3.1800  -20.8520   -0.7410 C   0  0  0  0  0
    1.6930  -20.7190   -0.6320 C   0  0  0  0  0
    0.7810  -20.8290   -1.6020 C   0  0  0  0  0
    7.8230  -17.6860    0.5180 O   0  0  0  0  0
    7.1190  -18.3340    3.3280 C   0  0  0  0  0
    5.2870  -20.6170    3.1700 O   0  0  0  0  0
    6.0340  -22.0480    0.5840 C   0  0  0  0  0
    3.7580  -21.1460   -2.0940 C   0  0  0  0  0
    3.2555  -20.5781    1.2855 H   0  0  0  0  0
    1.3059  -20.5057    0.3633 H   0  0  0  0  0
   -0.2763  -20.7062   -1.3718 H   0  0  0  0  0
    1.0949  -21.0414   -2.6229 H   0  0  0  0  0
    7.7891  -17.5110    3.0388 H   0  0  0  0  0
    6.2692  -17.9225    3.8924 H   0  0  0  0  0
    7.6760  -19.0459    3.9548 H   0  0  0  0  0
    5.6237  -20.1546    3.9285 H   0  0  0  0  0
    5.5478  -22.7365    1.2908 H   0  0  0  0  0
    5.8979  -22.4295   -0.4386 H   0  0  0  0  0
    7.1062  -21.9882    0.8224 H   0  0  0  0  0
    4.8526  -21.2133   -2.0089 H   0  0  0  0  0
    3.3683  -22.1041   -2.4683 H   0  0  0  0  0
    3.5023  -20.3377   -2.7948 H   0  0  0  0  0
  1  2  1  0  0  0
  1  5  1  0  0  0
  2  3  1  0  0  0
  2 10  2  0  0  0
  3  4  2  0  0  0
  3 11  1  0  0  0
  4  5  1  0  0  0
  4 12  1  0  0  0
  5  6  1  0  0  0
  5 13  1  0  0  0
  6  7  2  0  0  0
  7  8  1  0  0  0
  7 14  1  0  0  0
  8  9  2  0  0  0
  6 15  1  0  0  0
  8 16  1  0  0  0
  9 17  1  0  0  0
  9 18  1  0  0  0
 11 19  1  0  0  0
 11 20  1  0  0  0
 11 21  1  0  0  0
 12 22  1  0  0  0
 13 23  1  0  0  0
 13 24  1  0  0  0
 13 25  1  0  0  0
 14 26  1  0  0  0
 14 27  1  0  0  0
 14 28  1  0  0  0
M  END
$$$$
