### 
### Created by X-TOOL on Mon Oct 24 22:28:32 2005
### 

@<TRIPOS>MOLECULE
1h6h_ligand
   64    64     1     0     0
SMALL
GAST_HUCK


@<TRIPOS>ATOM
      1 C1         10.9490   20.3160    5.6510 C.3       1 SUB1        0.130
      2 C2         11.8630   19.2320    5.0310 C.3       1 SUB1        0.119
      3 C3         11.9670   18.0000    6.0020 C.3       1 SUB1        0.133
      4 C4         10.5280   17.4240    6.3000 C.3       1 SUB1        0.116
      5 C5          9.6500   18.5310    6.9530 C.3       1 SUB1        0.112
      6 C6          9.5400   19.7450    5.9740 C.3       1 SUB1        0.115
      7 O1         10.8220   21.3850    4.7020 O.3       1 SUB1       -0.312
      8 O2         11.3240   18.8240    3.7830 O.3       1 SUB1       -0.386
      9 O3         12.8210   17.0480    5.3580 O.3       1 SUB1       -0.314
     10 O4         10.6080   16.3110    7.2060 O.3       1 SUB1       -0.386
     11 O5          8.3450   18.0280    7.1970 O.3       1 SUB1       -0.387
     12 O6          8.7370   20.7580    6.5800 O.3       1 SUB1       -0.386
     13 P1         11.7070   22.6980    4.6800 P.3       1 SUB1        0.272
     14 O11        11.7850   23.2070    3.1700 O.co2     1 SUB1       -0.532
     15 O12        13.1300   22.4370    5.2810 O.co2     1 SUB1       -0.532
     16 O13        10.9450   23.7970    5.5800 O.3       1 SUB1       -0.317
     17 P3         13.8080   16.0370    6.1510 P.3       1 SUB1        0.206
     18 O31        12.9260   15.0260    6.9970 O.co2     1 SUB1       -0.535
     19 O32        14.6980   16.9070    7.1270 O.co2     1 SUB1       -0.535
     20 O33        14.6690   15.2550    5.0630 O.co2     1 SUB1       -0.535
     21 C7          9.8960   24.5900    5.0580 C.3       1 SUB1        0.095
     22 C8         10.5070   25.9650    4.8440 C.3       1 SUB1        0.141
     23 C9         10.3390   26.8560    6.1000 C.3       1 SUB1        0.110
     24 C10         9.1200   28.8350    6.7970 C.2       1 SUB1        0.234
     25 C11         8.9280   30.3190    6.4550 C.3       1 SUB1        0.049
     26 C12         9.1290   31.3280    7.6060 C.3       1 SUB1       -0.038
     27 C13         9.1150   32.7900    7.1320 C.3       1 SUB1       -0.063
     28 C14        10.8730   26.6200    2.4930 C.2       1 SUB1        0.234
     29 C15        10.3650   27.6260    1.4670 C.3       1 SUB1        0.049
     30 C16        10.9480   29.0420    1.6070 C.3       1 SUB1       -0.038
     31 C17         9.9960   29.9850    2.3420 C.3       1 SUB1       -0.063
     32 O14        10.0380   26.5760    3.6160 O.3       1 SUB1       -0.268
     33 O15         9.8700   28.1910    5.8160 O.3       1 SUB1       -0.274
     34 O16         8.8100   28.3660    7.9060 O.2       1 SUB1       -0.370
     35 O17        12.0210   26.1790    2.4290 O.2       1 SUB1       -0.370
     36 H11        11.4064   20.6932    6.5775 H         1 SUB1        0.069
     37 H21        12.8675   19.6513    4.8724 H         1 SUB1        0.065
     38 H31        12.4232   18.3120    6.9530 H         1 SUB1        0.070
     39 H41        10.0670   17.0954    5.3569 H         1 SUB1        0.065
     40 H51        10.1070   18.8544    7.8999 H         1 SUB1        0.065
     41 H61         9.0644   19.4135    5.0392 H         1 SUB1        0.065
     42 H81        11.2761   19.5726    3.2001 H         1 SUB1        0.210
     43 H101       11.1406   15.6264    6.8185 H         1 SUB1        0.210
     44 H111        7.8142   18.7078    7.5953 H         1 SUB1        0.210
     45 H121        7.8714   20.4098    6.7585 H         1 SUB1        0.210
     46 H211        9.0616   24.6454    5.7726 H         1 SUB1        0.063
     47 H212        9.5358   24.1751    4.1051 H         1 SUB1        0.063
     48 H221       11.5891   25.8140    4.7166 H         1 SUB1        0.070
     49 H231       11.3144   26.9321    6.6028 H         1 SUB1        0.064
     50 H232        9.6163   26.3717    6.7731 H         1 SUB1        0.064
     51 H251        7.9023   30.4440    6.0777 H         1 SUB1        0.052
     52 H252        9.6447   30.5732    5.6602 H         1 SUB1        0.052
     53 H261       10.0977   31.1243    8.0856 H         1 SUB1        0.029
     54 H262        8.3206   31.1894    8.3389 H         1 SUB1        0.029
     55 H271        9.2623   33.4565    7.9946 H         1 SUB1        0.023
     56 H272        8.1477   33.0125    6.6578 H         1 SUB1        0.023
     57 H273        9.9249   32.9474    6.4045 H         1 SUB1        0.023
     58 H291        9.2718   27.6948    1.5678 H         1 SUB1        0.052
     59 H292       10.6179   27.2497    0.4648 H         1 SUB1        0.052
     60 H301       11.1428   29.4464    0.6028 H         1 SUB1        0.029
     61 H302       11.8923   28.9831    2.1681 H         1 SUB1        0.029
     62 H311       10.4539   30.9823    2.4180 H         1 SUB1        0.023
     63 H312        9.7992   29.5941    3.3512 H         1 SUB1        0.023
     64 H313        9.0497   30.0575    1.7859 H         1 SUB1        0.023
@<TRIPOS>BOND
     1    1    7 1  
     2    1    6 1  
     3    1    2 1  
     4    2    8 1  
     5    2    3 1  
     6    3    9 1  
     7    3    4 1  
     8    4   10 1  
     9    4    5 1  
    10    5   11 1  
    11    5    6 1  
    12    6   12 1  
    13    9   17 1  
    14   17   20 2  
    15   17   19 2  
    16   17   18 2  
    17    7   13 1  
    18   13   16 1  
    19   13   15 2  
    20   13   14 2  
    21   16   21 1  
    22   21   22 1  
    23   22   32 1  
    24   22   23 1  
    25   23   33 1  
    26   33   24 1  
    27   24   34 2  
    28   24   25 1  
    29   25   26 1  
    30   26   27 1  
    31   32   28 1  
    32   28   35 2  
    33   28   29 1  
    34   29   30 1  
    35   30   31 1  
    36    1   36 1  
    37    2   37 1  
    38    3   38 1  
    39    4   39 1  
    40    5   40 1  
    41    6   41 1  
    42    8   42 1  
    43   10   43 1  
    44   11   44 1  
    45   12   45 1  
    46   21   46 1  
    47   21   47 1  
    48   22   48 1  
    49   23   49 1  
    50   23   50 1  
    51   25   51 1  
    52   25   52 1  
    53   26   53 1  
    54   26   54 1  
    55   27   55 1  
    56   27   56 1  
    57   27   57 1  
    58   29   58 1  
    59   29   59 1  
    60   30   60 1  
    61   30   61 1  
    62   31   62 1  
    63   31   63 1  
    64   31   64 1  
@<TRIPOS>SUBSTRUCTURE
     1 SUB1        1 GROUP

