1r4w_ligand
  -I-interpret- 

 36 35  0  0  0  0  0  0  0  0999 V2000
  -40.0480   -3.6560   -1.9500 N   0  3  0  0  0
  -40.0160   -4.7010   -2.9740 C   0  0  0  0  0
  -38.7550   -4.5760   -3.8090 C   0  0  0  0  0
  -38.4520   -5.4920   -4.6160 O   0  0  0  0  0
  -38.0200   -3.4810   -3.5740 O   0  5  0  0  0
  -41.3410   -4.5470   -3.7450 C   0  0  0  0  0
  -41.7230   -5.8250   -4.5120 C   0  0  0  0  0
  -43.1800   -5.6340   -5.1350 C   0  0  0  0  0
  -43.8490   -4.5750   -4.9600 O   0  0  0  0  0
  -43.6530   -6.7130   -5.8090 N   0  0  0  0  0
  -45.0180   -6.6960   -6.3780 C   0  0  0  0  0
  -45.7670   -7.5330   -5.3230 C   0  0  0  0  0
  -45.7940   -8.7630   -5.4040 O   0  0  0  0  0
  -45.1390   -7.4270   -7.7760 C   0  0  0  0  0
  -44.0000   -6.7210   -9.0730 S   0  0  0  0  0
  -46.3410   -6.8330   -4.2900 N   0  0  0  0  0
  -47.0900   -7.4350   -3.1170 C   0  0  0  0  0
  -47.1360   -6.4420   -1.9040 C   0  0  0  0  0
  -47.7280   -6.8430   -0.8740 O   0  0  0  0  0
  -46.5760   -5.2740   -1.9950 O   0  5  0  0  0
  -40.8889   -3.7484   -1.4018 H   0  0  0  0  0
  -40.0336   -2.7508   -2.3931 H   0  0  0  0  0
  -39.2437   -3.7491   -1.3496 H   0  0  0  0  0
  -40.0017   -5.6908   -2.4943 H   0  0  0  0  0
  -41.2379   -3.7207   -4.4638 H   0  0  0  0  0
  -42.1418   -4.3120   -3.0285 H   0  0  0  0  0
  -41.7248   -6.6829   -3.8236 H   0  0  0  0  0
  -40.9965   -6.0034   -5.3184 H   0  0  0  0  0
  -43.0765   -7.5223   -5.9212 H   0  0  0  0  0
  -45.4073   -5.6703   -6.4579 H   0  0  0  0  0
  -46.1756   -7.3324   -8.1318 H   0  0  0  0  0
  -44.8945   -8.4904   -7.6371 H   0  0  0  0  0
  -44.1227   -7.2257   -9.9369 H   0  0  0  0  0
  -46.2574   -5.8368   -4.3136 H   0  0  0  0  0
  -46.5835   -8.3601   -2.8044 H   0  0  0  0  0
  -48.1187   -7.6677   -3.4294 H   0  0  0  0  0
  1  2  1  0  0  0
  2  3  1  0  0  0
  2  6  1  0  0  0
  3  4  2  0  0  0
  3  5  1  0  0  0
  6  7  1  0  0  0
  7  8  1  0  0  0
  8  9  2  0  0  0
  8 10  1  0  0  0
 10 11  1  0  0  0
 11 12  1  0  0  0
 11 14  1  0  0  0
 12 13  2  0  0  0
 12 16  1  0  0  0
 14 15  1  0  0  0
 16 17  1  0  0  0
 17 18  1  0  0  0
 18 19  2  0  0  0
 18 20  1  0  0  0
  1 21  1  0  0  0
  1 22  1  0  0  0
  1 23  1  0  0  0
  2 24  1  0  0  0
  6 25  1  0  0  0
  6 26  1  0  0  0
  7 27  1  0  0  0
  7 28  1  0  0  0
 10 29  1  0  0  0
 11 30  1  0  0  0
 14 31  1  0  0  0
 14 32  1  0  0  0
 15 33  1  0  0  0
 16 34  1  0  0  0
 17 35  1  0  0  0
 17 36  1  0  0  0
M  END
$$$$
