### 
### Created by X-TOOL on Mon Oct 24 22:41:38 2005
### 

@<TRIPOS>MOLECULE
1qb9_ligand
   69    74     1     0     0
SMALL
GAST_HUCK


@<TRIPOS>ATOM
      1 N1         19.6800    2.1500   53.8100 N.pl3     1 SUB1       -0.200
      2 C1         19.9090    1.5210   54.9540 C.cat     1 SUB1        0.316
      3 N2         18.8690    0.7860   55.3640 N.pl3     1 SUB1       -0.200
      4 C2         21.0750    1.6030   55.7630 C.ar      1 SUB1        0.184
      5 C3         22.2160    2.3270   55.3700 C.ar      1 SUB1       -0.003
      6 C4         23.3650    2.3730   56.2070 C.ar      1 SUB1       -0.021
      7 C5         24.5020    3.1220   55.8000 C.ar      1 SUB1       -0.052
      8 C6         25.6700    3.1410   56.6190 C.ar      1 SUB1       -0.015
      9 C7         25.6610    2.4280   57.8380 C.ar      1 SUB1       -0.054
     10 C8         24.5350    1.7160   58.2620 C.ar      1 SUB1       -0.057
     11 C9         23.3760    1.6660   57.4410 C.ar      1 SUB1       -0.022
     12 C10        22.2570    0.9260   57.8630 C.ar      1 SUB1       -0.052
     13 C11        21.1210    0.9080   57.0200 C.ar      1 SUB1       -0.009
     14 C12        26.9010    3.9020   56.1750 C.3       1 SUB1        0.081
     15 N21        28.1230    3.1900   56.5870 N.pl3     1 SUB1       -0.251
     16 C21        28.8770    3.5270   57.6880 C.ar      1 SUB1        0.068
     17 C22        29.9340    2.6340   57.8400 C.ar      1 SUB1       -0.008
     18 C23        29.8170    1.7300   56.8040 C.ar      1 SUB1       -0.012
     19 C24        28.6860    2.0890   56.0410 C.ar      1 SUB1        0.063
     20 C25        30.6510    0.6320   56.5360 C.ar      1 SUB1       -0.073
     21 C26        30.3180   -0.1420   55.4170 C.ar      1 SUB1       -0.043
     22 C27        29.1710    0.1870   54.6210 C.ar      1 SUB1        0.082
     23 C28        28.3620    1.2810   54.9170 C.ar      1 SUB1       -0.012
     24 C29        30.8970    2.6960   58.8640 C.ar      1 SUB1       -0.070
     25 C30        30.7770    3.7480   59.7920 C.ar      1 SUB1       -0.077
     26 C31        29.7080    4.6710   59.6700 C.ar      1 SUB1       -0.075
     27 C32        28.7530    4.5750   58.6320 C.ar      1 SUB1       -0.041
     28 O          28.9380   -0.6660   53.5510 O.3       1 SUB1       -0.318
     29 C41        29.8570   -1.8200   53.3930 C.3       1 SUB1        0.084
     30 C42        31.3180   -1.3350   53.1880 C.3       1 SUB1       -0.003
     31 C43        31.6910   -1.3610   51.6590 C.3       1 SUB1        0.032
     32 N41        31.7100   -2.7510   51.2380 N.3       1 SUB1       -0.218
     33 C44        30.4790   -3.4770   51.5120 C.3       1 SUB1        0.032
     34 C45        29.3770   -2.6870   52.2250 C.3       1 SUB1       -0.003
     35 C46        32.7940   -3.3460   50.6280 C.2       1 SUB1        0.075
     36 N42        32.7680   -4.6500   50.2360 N.2       1 SUB1       -0.395
     37 C47        34.0800   -2.6720   50.3310 C.3       1 SUB1        0.015
     38 H11        18.7889    2.0076   53.3134 H         1 SUB1        0.192
     39 H12        20.3931    2.7811   53.4176 H         1 SUB1        0.192
     40 H31        18.9306    0.2513   56.2422 H         1 SUB1        0.192
     41 H32        18.0067    0.7548   54.8015 H         1 SUB1        0.192
     42 H51        22.2192    2.8535   54.4224 H         1 SUB1        0.065
     43 H71        24.4819    3.6776   54.8694 H         1 SUB1        0.053
     44 H91        26.5487    2.4329   58.4601 H         1 SUB1        0.059
     45 H101       24.5460    1.2023   59.2165 H         1 SUB1        0.062
     46 H121       22.2647    0.3870   58.8035 H         1 SUB1        0.062
     47 H131       20.2490    0.3466   57.3354 H         1 SUB1        0.064
     48 H141       26.8930    4.9023   56.6325 H         1 SUB1        0.075
     49 H142       26.8908    3.9998   55.0794 H         1 SUB1        0.075
     50 H201       31.5051    0.3966   57.1606 H         1 SUB1        0.056
     51 H211       30.9312   -0.9953   55.1508 H         1 SUB1        0.047
     52 H231       27.5004    1.5125   54.3013 H         1 SUB1        0.045
     53 H241       31.6956    1.9664   58.9352 H         1 SUB1        0.056
     54 H251       31.4978    3.8515   60.5950 H         1 SUB1        0.051
     55 H261       29.6203    5.4735   60.3934 H         1 SUB1        0.056
     56 H271       27.9414    5.2900   58.5602 H         1 SUB1        0.054
     57 H291       29.8233   -2.4245   54.3114 H         1 SUB1        0.065
     58 H301       32.0013   -1.9973   53.7398 H         1 SUB1        0.031
     59 H302       31.4163   -0.3076   53.5683 H         1 SUB1        0.031
     60 H311       32.6821   -0.9088   51.5064 H         1 SUB1        0.050
     61 H312       30.9404   -0.8034   51.0797 H         1 SUB1        0.050
     62 H331       30.7322   -4.3434   52.1407 H         1 SUB1        0.050
     63 H332       30.0739   -3.8271   50.5511 H         1 SUB1        0.050
     64 H341       28.8959   -2.0291   51.4863 H         1 SUB1        0.031
     65 H342       28.6388   -3.4044   52.6129 H         1 SUB1        0.031
     66 H361       33.5753   -5.0591   49.7922 H         1 SUB1        0.059
     67 H371       34.7625   -3.3832   49.8428 H         1 SUB1        0.052
     68 H372       34.5317   -2.3147   51.2681 H         1 SUB1        0.052
     69 H373       33.9003   -1.8179   49.6615 H         1 SUB1        0.052
@<TRIPOS>BOND
     1    1    2 1  
     2    2    4 1  
     3    2    3 1  
     4    4   13 ar 
     5    4    5 ar 
     6    5    6 ar 
     7    6   11 ar 
     8    6    7 ar 
     9    7    8 ar 
    10    8   14 1  
    11    8    9 ar 
    12    9   10 ar 
    13   10   11 ar 
    14   11   12 ar 
    15   12   13 ar 
    16   14   15 1  
    17   15   19 1  
    18   15   16 1  
    19   16   27 ar 
    20   16   17 ar 
    21   17   24 ar 
    22   17   18 ar 
    23   18   20 ar 
    24   18   19 ar 
    25   19   23 ar 
    26   23   22 ar 
    27   22   28 1  
    28   22   21 ar 
    29   21   20 ar 
    30   28   29 1  
    31   29   34 1  
    32   29   30 1  
    33   30   31 1  
    34   31   32 1  
    35   32   35 1  
    36   32   33 1  
    37   33   34 1  
    38   35   37 1  
    39   35   36 2  
    40   24   25 ar 
    41   25   26 ar 
    42   26   27 ar 
    43    1   38 1  
    44    1   39 1  
    45    3   40 1  
    46    3   41 1  
    47    5   42 1  
    48    7   43 1  
    49    9   44 1  
    50   10   45 1  
    51   12   46 1  
    52   13   47 1  
    53   14   48 1  
    54   14   49 1  
    55   20   50 1  
    56   21   51 1  
    57   23   52 1  
    58   24   53 1  
    59   25   54 1  
    60   26   55 1  
    61   27   56 1  
    62   29   57 1  
    63   30   58 1  
    64   30   59 1  
    65   31   60 1  
    66   31   61 1  
    67   33   62 1  
    68   33   63 1  
    69   34   64 1  
    70   34   65 1  
    71   36   66 1  
    72   37   67 1  
    73   37   68 1  
    74   37   69 1  
@<TRIPOS>SUBSTRUCTURE
     1 SUB1        1 GROUP

