### 
### Created by X-TOOL on Tue Oct 25 00:59:35 2005
### 

@<TRIPOS>MOLECULE
1rzx_ligand
  106   105     1     0     0
SMALL
GAST_HUCK


@<TRIPOS>ATOM
      1 C           5.3050   29.5130   -2.9530 C.2       1 SUB1        0.175
      2 O           5.3300   28.3070   -2.6930 O.2       1 SUB1       -0.397
      3 CH3         3.9920   30.2180   -3.2980 C.3       1 SUB1        0.026
      4 N           6.2120   30.3680   -2.4950 N.am      1 SUB1       -0.266
      5 CA          7.6390   30.1140   -2.6460 C.3       1 SUB1        0.133
      6 C           8.0850   28.9530   -1.7580 C.2       1 SUB1        0.204
      7 O           7.6490   28.8270   -0.6130 O.2       1 SUB1       -0.394
      8 CB          8.4680   31.3620   -2.2720 C.3       1 SUB1       -0.006
      9 CG1         9.9390   31.1240   -2.5780 C.3       1 SUB1       -0.058
     10 CG2         7.9510   32.5740   -3.0300 C.3       1 SUB1       -0.058
     11 N           8.9490   28.1020   -2.2990 N.am      1 SUB1       -0.264
     12 CA          9.4740   26.9650   -1.5540 C.3       1 SUB1        0.131
     13 C          10.8350   27.3530   -0.9930 C.2       1 SUB1        0.204
     14 O          11.7440   27.6830   -1.7450 O.2       1 SUB1       -0.394
     15 CB          9.6270   25.7510   -2.4720 C.3       1 SUB1       -0.012
     16 CG         10.3300   24.5540   -1.8310 C.3       1 SUB1       -0.044
     17 CD          9.4640   23.8770   -0.7810 C.3       1 SUB1       -0.012
     18 CE         10.1440   22.6210   -0.2350 C.3       1 SUB1       -0.035
     19 NZ          9.2250   21.8070    0.6190 N.4       1 SUB1        0.219
     20 N          10.9730   27.3310    0.3260 N.am      1 SUB1       -0.263
     21 CA         12.2440   27.6720    0.9480 C.3       1 SUB1        0.134
     22 C          12.6900   26.5640    1.8850 C.2       1 SUB1        0.204
     23 O          11.8740   25.7900    2.3780 O.2       1 SUB1       -0.394
     24 CB         12.1480   29.0210    1.6760 C.3       1 SUB1       -0.001
     25 CG         11.1800   29.0680    2.8310 C.3       1 SUB1       -0.010
     26 CD         10.6130   30.4640    3.0470 C.2       1 SUB1        0.028
     27 OE1        11.3700   31.4520    2.9340 O.co2     1 SUB1       -0.567
     28 OE2         9.4040   30.5760    3.3410 O.co2     1 SUB1       -0.567
     29 N          13.9970   26.4950    2.1120 N.am      1 SUB1       -0.262
     30 CA         14.5950   25.4650    2.9520 C.3       1 SUB1        0.154
     31 C          15.4590   26.0790    4.0500 C.2       1 SUB1        0.206
     32 O          16.3550   26.8790    3.7670 O.2       1 SUB1       -0.394
     33 CB         15.4320   24.5270    2.0680 C.3       1 SUB1        0.084
     34 OG         16.2600   23.6750    2.8390 O.3       1 SUB1       -0.390
     35 N          15.1700   25.7130    5.2980 N.am      1 SUB1       -0.264
     36 CA         15.8990   26.2370    6.4490 C.3       1 SUB1        0.131
     37 C          17.2520   25.5460    6.6440 C.2       1 SUB1        0.205
     38 O          17.3830   24.3310    6.4900 O.2       1 SUB1       -0.394
     39 CB         15.0740   26.0420    7.7190 C.3       1 SUB1       -0.010
     40 CG         15.7440   26.3650    9.0590 C.3       1 SUB1       -0.043
     41 CD1        15.9820   27.8690    9.1410 C.3       1 SUB1       -0.062
     42 CD2        14.8580   25.9090   10.2250 C.3       1 SUB1       -0.062
     43 N          18.2560   26.3370    6.9810 N.am      1 SUB1       -0.268
     44 CA         19.5830   25.8070    7.2520 C.3       1 SUB1        0.084
     45 C          20.0380   26.4630    8.5580 C.2       1 SUB1        0.053
     46 O          19.5840   27.6060    8.7990 O.co2     1 SUB1       -0.564
     47 CB         20.5660   26.1330    6.1000 C.3       1 SUB1       -0.012
     48 CG1        20.0870   25.4590    4.8120 C.3       1 SUB1       -0.058
     49 CG2        20.6840   27.6230    5.8920 C.3       1 SUB1       -0.058
     50 OXT        20.8150   25.8400    9.3220 O.co2     1 SUB1       -0.564
     51 H31         4.1881   31.2823   -3.4950 H         1 SUB1        0.047
     52 H32         3.2927   30.1241   -2.4542 H         1 SUB1        0.047
     53 H33         3.5511   29.7546   -4.1929 H         1 SUB1        0.047
     54 H41         5.9094   31.2038   -2.0368 H         1 SUB1        0.188
     55 H51         7.8369   29.8562   -3.6969 H         1 SUB1        0.080
     56 H81         8.3594   31.5489   -1.1935 H         1 SUB1        0.034
     57 H91        10.5191   32.0187   -2.3078 H         1 SUB1        0.023
     58 H92        10.0616   30.9180   -3.6515 H         1 SUB1        0.023
     59 H93        10.3001   30.2634   -1.9959 H         1 SUB1        0.023
     60 H101        6.8875   32.7275   -2.7945 H         1 SUB1        0.023
     61 H102        8.0668   32.4072   -4.1111 H         1 SUB1        0.023
     62 H103        8.5245   33.4644   -2.7329 H         1 SUB1        0.023
     63 H111        9.2473   28.2452   -3.2427 H         1 SUB1        0.188
     64 H121        8.7891   26.7150   -0.7304 H         1 SUB1        0.080
     65 H151       10.2082   26.0585   -3.3538 H         1 SUB1        0.031
     66 H152        8.6232   25.4307   -2.7878 H         1 SUB1        0.031
     67 H161       11.2586   24.9014   -1.3545 H         1 SUB1        0.027
     68 H162       10.5721   23.8227   -2.6162 H         1 SUB1        0.027
     69 H171        8.5020   23.5965   -1.2347 H         1 SUB1        0.032
     70 H172        9.2880   24.5793    0.0471 H         1 SUB1        0.032
     71 H181       11.0134   22.9224    0.3677 H         1 SUB1        0.081
     72 H182       10.4805   22.0040   -1.0812 H         1 SUB1        0.081
     73 H191        9.7132   20.9921    0.9560 H         1 SUB1        0.199
     74 H192        8.4270   21.5193    0.0745 H         1 SUB1        0.199
     75 H193        8.9154   22.3609    1.4022 H         1 SUB1        0.199
     76 H201       10.1945   27.0771    0.9000 H         1 SUB1        0.188
     77 H211       12.9987   27.7691    0.1537 H         1 SUB1        0.080
     78 H241       11.8380   29.7803    0.9430 H         1 SUB1        0.035
     79 H242       13.1477   29.2700    2.0614 H         1 SUB1        0.035
     80 H251       11.7035   28.7525    3.7455 H         1 SUB1        0.049
     81 H252       10.3499   28.3759    2.6264 H         1 SUB1        0.049
     82 H291       14.5943   27.1769    1.6898 H         1 SUB1        0.188
     83 H301       13.7905   24.8840    3.4265 H         1 SUB1        0.082
     84 H331       16.0658   25.1344    1.4051 H         1 SUB1        0.061
     85 H332       14.7529   23.9096    1.4616 H         1 SUB1        0.061
     86 H341       16.7601   23.1122    2.2597 H         1 SUB1        0.210
     87 H351       14.4298   25.0582    5.4512 H         1 SUB1        0.188
     88 H361       16.0712   27.3119    6.2910 H         1 SUB1        0.080
     89 H391       14.7654   24.9867    7.7518 H         1 SUB1        0.032
     90 H392       14.1834   26.6821    7.6341 H         1 SUB1        0.032
     91 H401       16.7092   25.8405    9.1168 H         1 SUB1        0.030
     92 H411       16.4630   28.1123   10.0998 H         1 SUB1        0.023
     93 H412       15.0197   28.3970    9.0692 H         1 SUB1        0.023
     94 H413       16.6350   28.1826    8.3132 H         1 SUB1        0.023
     95 H421       14.6923   24.8237   10.1569 H         1 SUB1        0.023
     96 H422       13.8911   26.4312   10.1768 H         1 SUB1        0.023
     97 H423       15.3552   26.1450   11.1774 H         1 SUB1        0.023
     98 H431       18.0996   27.3222    7.0512 H         1 SUB1        0.190
     99 H441       19.5312   24.7155    7.3779 H         1 SUB1        0.078
    100 H471       21.5582   25.7364    6.3612 H         1 SUB1        0.035
    101 H481       20.7858   25.6913    3.9949 H         1 SUB1        0.024
    102 H482       19.0846   25.8314    4.5541 H         1 SUB1        0.024
    103 H483       20.0464   24.3699    4.9612 H         1 SUB1        0.024
    104 H491       21.0286   28.0970    6.8229 H         1 SUB1        0.024
    105 H492       19.7022   28.0332    5.6133 H         1 SUB1        0.024
    106 H493       21.4073   27.8249    5.0882 H         1 SUB1        0.024
@<TRIPOS>BOND
     1    1    2 2  
     2    1    3 1  
     3    1    4 am 
     4    4    5 1  
     5    5    6 1  
     6    5    8 1  
     7    6    7 2  
     8    6   11 am 
     9    8    9 1  
    10    8   10 1  
    11   11   12 1  
    12   12   13 1  
    13   12   15 1  
    14   13   14 2  
    15   13   20 am 
    16   15   16 1  
    17   16   17 1  
    18   17   18 1  
    19   18   19 1  
    20   20   21 1  
    21   21   22 1  
    22   21   24 1  
    23   22   23 2  
    24   22   29 am 
    25   24   25 1  
    26   25   26 1  
    27   26   27 2  
    28   26   28 2  
    29   29   30 1  
    30   30   31 1  
    31   30   33 1  
    32   31   32 2  
    33   31   35 am 
    34   33   34 1  
    35   35   36 1  
    36   36   37 1  
    37   36   39 1  
    38   37   38 2  
    39   37   43 am 
    40   39   40 1  
    41   40   41 1  
    42   40   42 1  
    43   43   44 1  
    44   44   45 1  
    45   44   47 1  
    46   45   46 2  
    47   45   50 2  
    48   47   48 1  
    49   47   49 1  
    50    3   51 1  
    51    3   52 1  
    52    3   53 1  
    53    4   54 1  
    54    5   55 1  
    55    8   56 1  
    56    9   57 1  
    57    9   58 1  
    58    9   59 1  
    59   10   60 1  
    60   10   61 1  
    61   10   62 1  
    62   11   63 1  
    63   12   64 1  
    64   15   65 1  
    65   15   66 1  
    66   16   67 1  
    67   16   68 1  
    68   17   69 1  
    69   17   70 1  
    70   18   71 1  
    71   18   72 1  
    72   19   73 1  
    73   19   74 1  
    74   19   75 1  
    75   20   76 1  
    76   21   77 1  
    77   24   78 1  
    78   24   79 1  
    79   25   80 1  
    80   25   81 1  
    81   29   82 1  
    82   30   83 1  
    83   33   84 1  
    84   33   85 1  
    85   34   86 1  
    86   35   87 1  
    87   36   88 1  
    88   39   89 1  
    89   39   90 1  
    90   40   91 1  
    91   41   92 1  
    92   41   93 1  
    93   41   94 1  
    94   42   95 1  
    95   42   96 1  
    96   42   97 1  
    97   43   98 1  
    98   44   99 1  
    99   47  100 1  
   100   48  101 1  
   101   48  102 1  
   102   48  103 1  
   103   49  104 1  
   104   49  105 1  
   105   49  106 1  
@<TRIPOS>SUBSTRUCTURE
     1 SUB1        1 GROUP

