1rzx_ligand
  -I-interpret- 

106105  0  0  0  0  0  0  0  0999 V2000
    5.3050   29.5130   -2.9530 C   0  0  0  0  0
    5.3300   28.3070   -2.6930 O   0  0  0  0  0
    3.9920   30.2180   -3.2980 C   0  0  0  0  0
    6.2120   30.3680   -2.4950 N   0  0  0  0  0
    7.6390   30.1140   -2.6460 C   0  0  0  0  0
    8.0850   28.9530   -1.7580 C   0  0  0  0  0
    7.6490   28.8270   -0.6130 O   0  0  0  0  0
    8.4680   31.3620   -2.2720 C   0  0  0  0  0
    9.9390   31.1240   -2.5780 C   0  0  0  0  0
    7.9510   32.5740   -3.0300 C   0  0  0  0  0
    8.9490   28.1020   -2.2990 N   0  0  0  0  0
    9.4740   26.9650   -1.5540 C   0  0  0  0  0
   10.8350   27.3530   -0.9930 C   0  0  0  0  0
   11.7440   27.6830   -1.7450 O   0  0  0  0  0
    9.6270   25.7510   -2.4720 C   0  0  0  0  0
   10.3300   24.5540   -1.8310 C   0  0  0  0  0
    9.4640   23.8770   -0.7810 C   0  0  0  0  0
   10.1440   22.6210   -0.2350 C   0  0  0  0  0
    9.2250   21.8070    0.6190 N   0  3  0  0  0
   10.9730   27.3310    0.3260 N   0  0  0  0  0
   12.2440   27.6720    0.9480 C   0  0  0  0  0
   12.6900   26.5640    1.8850 C   0  0  0  0  0
   11.8740   25.7900    2.3780 O   0  0  0  0  0
   12.1480   29.0210    1.6760 C   0  0  0  0  0
   11.1800   29.0680    2.8310 C   0  0  0  0  0
   10.6130   30.4640    3.0470 C   0  0  0  0  0
   11.3700   31.4520    2.9340 O   0  5  0  0  0
    9.4040   30.5760    3.3410 O   0  0  0  0  0
   13.9970   26.4950    2.1120 N   0  0  0  0  0
   14.5950   25.4650    2.9520 C   0  0  0  0  0
   15.4590   26.0790    4.0500 C   0  0  0  0  0
   16.3550   26.8790    3.7670 O   0  0  0  0  0
   15.4320   24.5270    2.0680 C   0  0  0  0  0
   16.2600   23.6750    2.8390 O   0  0  0  0  0
   15.1700   25.7130    5.2980 N   0  0  0  0  0
   15.8990   26.2370    6.4490 C   0  0  0  0  0
   17.2520   25.5460    6.6440 C   0  0  0  0  0
   17.3830   24.3310    6.4900 O   0  0  0  0  0
   15.0740   26.0420    7.7190 C   0  0  0  0  0
   15.7440   26.3650    9.0590 C   0  0  0  0  0
   15.9820   27.8690    9.1410 C   0  0  0  0  0
   14.8580   25.9090   10.2250 C   0  0  0  0  0
   18.2560   26.3370    6.9810 N   0  0  0  0  0
   19.5830   25.8070    7.2520 C   0  0  0  0  0
   20.0380   26.4630    8.5580 C   0  0  0  0  0
   19.5840   27.6060    8.7990 O   0  0  0  0  0
   20.5660   26.1330    6.1000 C   0  0  0  0  0
   20.0870   25.4590    4.8120 C   0  0  0  0  0
   20.6840   27.6230    5.8920 C   0  0  0  0  0
   20.8150   25.8400    9.3220 O   0  5  0  0  0
    4.1881   31.2823   -3.4950 H   0  0  0  0  0
    3.2927   30.1241   -2.4542 H   0  0  0  0  0
    3.5511   29.7546   -4.1929 H   0  0  0  0  0
    5.9094   31.2038   -2.0368 H   0  0  0  0  0
    7.8369   29.8562   -3.6969 H   0  0  0  0  0
    8.3594   31.5489   -1.1935 H   0  0  0  0  0
   10.5191   32.0187   -2.3078 H   0  0  0  0  0
   10.0616   30.9180   -3.6515 H   0  0  0  0  0
   10.3001   30.2634   -1.9959 H   0  0  0  0  0
    6.8875   32.7275   -2.7945 H   0  0  0  0  0
    8.0668   32.4072   -4.1111 H   0  0  0  0  0
    8.5245   33.4644   -2.7329 H   0  0  0  0  0
    9.2473   28.2452   -3.2427 H   0  0  0  0  0
    8.7891   26.7150   -0.7304 H   0  0  0  0  0
   10.2082   26.0585   -3.3538 H   0  0  0  0  0
    8.6232   25.4307   -2.7878 H   0  0  0  0  0
   11.2586   24.9014   -1.3545 H   0  0  0  0  0
   10.5721   23.8227   -2.6162 H   0  0  0  0  0
    8.5020   23.5965   -1.2347 H   0  0  0  0  0
    9.2880   24.5793    0.0471 H   0  0  0  0  0
   11.0134   22.9224    0.3677 H   0  0  0  0  0
   10.4805   22.0040   -1.0812 H   0  0  0  0  0
    9.7132   20.9921    0.9560 H   0  0  0  0  0
    8.4270   21.5193    0.0745 H   0  0  0  0  0
    8.9154   22.3609    1.4022 H   0  0  0  0  0
   10.1945   27.0771    0.9000 H   0  0  0  0  0
   12.9987   27.7691    0.1537 H   0  0  0  0  0
   11.8380   29.7803    0.9430 H   0  0  0  0  0
   13.1477   29.2700    2.0614 H   0  0  0  0  0
   11.7035   28.7525    3.7455 H   0  0  0  0  0
   10.3499   28.3759    2.6264 H   0  0  0  0  0
   14.5943   27.1769    1.6898 H   0  0  0  0  0
   13.7905   24.8840    3.4265 H   0  0  0  0  0
   16.0658   25.1344    1.4051 H   0  0  0  0  0
   14.7529   23.9096    1.4616 H   0  0  0  0  0
   16.7601   23.1122    2.2597 H   0  0  0  0  0
   14.4298   25.0582    5.4512 H   0  0  0  0  0
   16.0712   27.3119    6.2910 H   0  0  0  0  0
   14.7654   24.9867    7.7518 H   0  0  0  0  0
   14.1834   26.6821    7.6341 H   0  0  0  0  0
   16.7092   25.8405    9.1168 H   0  0  0  0  0
   16.4630   28.1123   10.0998 H   0  0  0  0  0
   15.0197   28.3970    9.0692 H   0  0  0  0  0
   16.6350   28.1826    8.3132 H   0  0  0  0  0
   14.6923   24.8237   10.1569 H   0  0  0  0  0
   13.8911   26.4312   10.1768 H   0  0  0  0  0
   15.3552   26.1450   11.1774 H   0  0  0  0  0
   18.0996   27.3222    7.0512 H   0  0  0  0  0
   19.5312   24.7155    7.3779 H   0  0  0  0  0
   21.5582   25.7364    6.3612 H   0  0  0  0  0
   20.7858   25.6913    3.9949 H   0  0  0  0  0
   19.0846   25.8314    4.5541 H   0  0  0  0  0
   20.0464   24.3699    4.9612 H   0  0  0  0  0
   21.0286   28.0970    6.8229 H   0  0  0  0  0
   19.7022   28.0332    5.6133 H   0  0  0  0  0
   21.4073   27.8249    5.0882 H   0  0  0  0  0
  1  2  2  0  0  0
  1  3  1  0  0  0
  1  4  1  0  0  0
  4  5  1  0  0  0
  5  6  1  0  0  0
  5  8  1  0  0  0
  6  7  2  0  0  0
  6 11  1  0  0  0
  8  9  1  0  0  0
  8 10  1  0  0  0
 11 12  1  0  0  0
 12 13  1  0  0  0
 12 15  1  0  0  0
 13 14  2  0  0  0
 13 20  1  0  0  0
 15 16  1  0  0  0
 16 17  1  0  0  0
 17 18  1  0  0  0
 18 19  1  0  0  0
 20 21  1  0  0  0
 21 22  1  0  0  0
 21 24  1  0  0  0
 22 23  2  0  0  0
 22 29  1  0  0  0
 24 25  1  0  0  0
 25 26  1  0  0  0
 26 27  1  0  0  0
 26 28  2  0  0  0
 29 30  1  0  0  0
 30 31  1  0  0  0
 30 33  1  0  0  0
 31 32  2  0  0  0
 31 35  1  0  0  0
 33 34  1  0  0  0
 35 36  1  0  0  0
 36 37  1  0  0  0
 36 39  1  0  0  0
 37 38  2  0  0  0
 37 43  1  0  0  0
 39 40  1  0  0  0
 40 41  1  0  0  0
 40 42  1  0  0  0
 43 44  1  0  0  0
 44 45  1  0  0  0
 44 47  1  0  0  0
 45 46  2  0  0  0
 45 50  1  0  0  0
 47 48  1  0  0  0
 47 49  1  0  0  0
  3 51  1  0  0  0
  3 52  1  0  0  0
  3 53  1  0  0  0
  4 54  1  0  0  0
  5 55  1  0  0  0
  8 56  1  0  0  0
  9 57  1  0  0  0
  9 58  1  0  0  0
  9 59  1  0  0  0
 10 60  1  0  0  0
 10 61  1  0  0  0
 10 62  1  0  0  0
 11 63  1  0  0  0
 12 64  1  0  0  0
 15 65  1  0  0  0
 15 66  1  0  0  0
 16 67  1  0  0  0
 16 68  1  0  0  0
 17 69  1  0  0  0
 17 70  1  0  0  0
 18 71  1  0  0  0
 18 72  1  0  0  0
 19 73  1  0  0  0
 19 74  1  0  0  0
 19 75  1  0  0  0
 20 76  1  0  0  0
 21 77  1  0  0  0
 24 78  1  0  0  0
 24 79  1  0  0  0
 25 80  1  0  0  0
 25 81  1  0  0  0
 29 82  1  0  0  0
 30 83  1  0  0  0
 33 84  1  0  0  0
 33 85  1  0  0  0
 34 86  1  0  0  0
 35 87  1  0  0  0
 36 88  1  0  0  0
 39 89  1  0  0  0
 39 90  1  0  0  0
 40 91  1  0  0  0
 41 92  1  0  0  0
 41 93  1  0  0  0
 41 94  1  0  0  0
 42 95  1  0  0  0
 42 96  1  0  0  0
 42 97  1  0  0  0
 43 98  1  0  0  0
 44 99  1  0  0  0
 47100  1  0  0  0
 48101  1  0  0  0
 48102  1  0  0  0
 48103  1  0  0  0
 49104  1  0  0  0
 49105  1  0  0  0
 49106  1  0  0  0
M  END
$$$$
