1g9r_ligand
  -I-interpret- 

 57 59  0  0  0  0  0  0  0  0999 V2000
   27.1630   44.4560   57.5030 N   0  0  0  0  0
   27.5340   43.7960   56.3230 C   0  0  0  0  0
   26.6600   44.0740   55.2470 N   0  0  0  0  0
   25.5010   44.9260   55.2740 C   0  0  0  0  0
   25.2030   45.5630   56.5200 C   0  0  0  0  0
   25.9940   45.3320   57.5600 C   0  0  0  0  0
   28.5080   43.0600   56.2490 O   0  0  0  0  0
   24.8430   45.0630   54.2610 O   0  0  0  0  0
   27.8490   44.3980   58.8810 C   0  0  0  0  0
   29.1310   45.2080   58.7930 C   0  0  0  0  0
   30.2360   44.4440   59.2660 O   0  0  0  0  0
   28.8440   46.4400   59.6380 C   0  0  0  0  0
   28.0680   45.8110   60.7880 C   0  0  0  0  0
   27.2480   44.7610   60.1030 O   0  0  0  0  0
   29.9230   47.2210   60.1170 O   0  0  0  0  0
   26.7540   46.2280   61.3700 C   0  0  0  0  0
   26.1960   47.5730   61.0630 O   0  0  0  0  0
   26.6690   49.0830   60.7750 P   0  0  0  0  0
   28.1310   49.3020   60.7700 O   0  0  0  0  0
   25.9930   49.6170   59.5510 O   0  5  0  0  0
   25.9380   49.2600   62.1840 O   0  0  0  0  0
   25.6800   50.4760   63.1700 P   0  0  0  0  0
   27.0200   51.0960   63.2630 O   0  5  0  0  0
   24.7090   51.3580   62.5300 O   0  0  0  0  0
   25.2160   49.9670   64.5840 O   0  0  0  0  0
   25.5920   49.8060   66.1370 C   0  0  0  0  0
   27.0680   49.2640   66.1080 C   0  0  0  0  0
   27.3880   48.0340   65.1120 C   0  0  0  0  0
   26.3550   46.8930   65.3890 C   0  0  0  0  0
   24.9230   47.5850   65.3610 C   0  0  0  0  0
   23.9020   46.5550   65.8390 C   0  0  0  0  0
   27.9950   50.2870   65.8600 F   0  0  0  0  0
   28.6640   47.5300   65.3880 O   0  0  0  0  0
   26.6420   46.3020   66.6940 O   0  0  0  0  0
   24.7110   48.6960   66.3740 O   0  0  0  0  0
   23.6600   45.3090   65.2480 O   0  0  0  0  0
   26.8696   43.6317   54.3750 H   0  0  0  0  0
   24.3433   46.2249   56.6131 H   0  0  0  0  0
   25.7603   45.8202   58.5049 H   0  0  0  0  0
   28.1115   43.3388   59.0191 H   0  0  0  0  0
   29.3276   45.5190   57.7564 H   0  0  0  0  0
   31.0286   44.9640   59.2044 H   0  0  0  0  0
   28.2051   47.1282   59.0652 H   0  0  0  0  0
   28.7717   45.5021   61.5749 H   0  0  0  0  0
   29.5881   47.9146   60.6731 H   0  0  0  0  0
   26.0029   45.4998   61.0301 H   0  0  0  0  0
   26.8541   46.1804   62.4644 H   0  0  0  0  0
   25.4341   50.6776   66.7891 H   0  0  0  0  0
   27.2717   48.8998   67.1257 H   0  0  0  0  0
   27.3398   48.3624   64.0633 H   0  0  0  0  0
   26.4187   46.1068   64.6223 H   0  0  0  0  0
   24.7088   47.9566   64.3481 H   0  0  0  0  0
   24.1789   46.3218   66.8777 H   0  0  0  0  0
   22.9292   47.0679   65.8163 H   0  0  0  0  0
   28.7064   47.2593   66.2976 H   0  0  0  0  0
   27.5020   45.8987   66.6755 H   0  0  0  0  0
   22.9789   44.8570   65.7322 H   0  0  0  0  0
  1  2  1  0  0  0
  1  6  1  0  0  0
  1  9  1  0  0  0
  2  3  1  0  0  0
  2  7  2  0  0  0
  3  4  1  0  0  0
  4  5  1  0  0  0
  4  8  2  0  0  0
  5  6  2  0  0  0
  9 10  1  0  0  0
  9 14  1  0  0  0
 10 11  1  0  0  0
 10 12  1  0  0  0
 12 13  1  0  0  0
 12 15  1  0  0  0
 13 14  1  0  0  0
 13 16  1  0  0  0
 16 17  1  0  0  0
 17 18  1  0  0  0
 18 19  2  0  0  0
 18 20  1  0  0  0
 18 21  1  0  0  0
 21 22  1  0  0  0
 22 23  1  0  0  0
 22 24  2  0  0  0
 22 25  1  0  0  0
 25 26  1  0  0  0
 26 27  1  0  0  0
 26 35  1  0  0  0
 27 28  1  0  0  0
 27 32  1  0  0  0
 28 29  1  0  0  0
 28 33  1  0  0  0
 29 30  1  0  0  0
 29 34  1  0  0  0
 30 31  1  0  0  0
 30 35  1  0  0  0
 31 36  1  0  0  0
  3 37  1  0  0  0
  5 38  1  0  0  0
  6 39  1  0  0  0
  9 40  1  0  0  0
 10 41  1  0  0  0
 11 42  1  0  0  0
 12 43  1  0  0  0
 13 44  1  0  0  0
 15 45  1  0  0  0
 16 46  1  0  0  0
 16 47  1  0  0  0
 26 48  1  0  0  0
 27 49  1  0  0  0
 28 50  1  0  0  0
 29 51  1  0  0  0
 30 52  1  0  0  0
 31 53  1  0  0  0
 31 54  1  0  0  0
 33 55  1  0  0  0
 34 56  1  0  0  0
 36 57  1  0  0  0
M  END
$$$$
