### 
### Created by X-TOOL on Mon Oct 24 23:58:43 2005
### 

@<TRIPOS>MOLECULE
1g9r_ligand
   57    59     1     0     0
SMALL
GAST_HUCK


@<TRIPOS>ATOM
      1 N1         27.1630   44.4560   57.5030 N.am      1 SUB1       -0.159
      2 C2         27.5340   43.7960   56.3230 C.2       1 SUB1        0.333
      3 N3         26.6600   44.0740   55.2470 N.am      1 SUB1       -0.186
      4 C4         25.5010   44.9260   55.2740 C.2       1 SUB1        0.182
      5 C5         25.2030   45.5630   56.5200 C.2       1 SUB1        0.006
      6 C6         25.9940   45.3320   57.5600 C.2       1 SUB1        0.059
      7 O2         28.5080   43.0600   56.2490 O.2       1 SUB1       -0.382
      8 O4         24.8430   45.0630   54.2610 O.2       1 SUB1       -0.412
      9 C1'        27.8490   44.3980   58.8810 C.3       1 SUB1        0.206
     10 C2'        29.1310   45.2080   58.7930 C.3       1 SUB1        0.139
     11 O2'        30.2360   44.4440   59.2660 O.3       1 SUB1       -0.384
     12 C3'        28.8440   46.4400   59.6380 C.3       1 SUB1        0.115
     13 C4'        28.0680   45.8110   60.7880 C.3       1 SUB1        0.116
     14 O4'        27.2480   44.7610   60.1030 O.3       1 SUB1       -0.336
     15 O3'        29.9230   47.2210   60.1170 O.3       1 SUB1       -0.386
     16 C5'        26.7540   46.2280   61.3700 C.3       1 SUB1        0.088
     17 O5'        26.1960   47.5730   61.0630 O.3       1 SUB1       -0.319
     18 PA         26.6690   49.0830   60.7750 P.3       1 SUB1        0.301
     19 O1A        28.1310   49.3020   60.7700 O.co2     1 SUB1       -0.533
     20 O2A        25.9930   49.6170   59.5510 O.co2     1 SUB1       -0.533
     21 O3A        25.9380   49.2600   62.1840 O.3       1 SUB1       -0.249
     22 PB         25.6800   50.4760   63.1700 P.3       1 SUB1        0.303
     23 O1B        27.0200   51.0960   63.2630 O.co2     1 SUB1       -0.533
     24 O2B        24.7090   51.3580   62.5300 O.co2     1 SUB1       -0.533
     25 O3B        25.2160   49.9670   64.5840 O.3       1 SUB1       -0.290
     26 C1'        25.5920   49.8060   66.1370 C.3       1 SUB1        0.205
     27 C2'        27.0680   49.2640   66.1080 C.3       1 SUB1        0.182
     28 C3'        27.3880   48.0340   65.1120 C.3       1 SUB1        0.119
     29 C4'        26.3550   46.8930   65.3890 C.3       1 SUB1        0.112
     30 C5'        24.9230   47.5850   65.3610 C.3       1 SUB1        0.113
     31 C6'        23.9020   46.5550   65.8390 C.3       1 SUB1        0.073
     32 F2'        27.9950   50.2870   65.8600 F         1 SUB1       -0.237
     33 O3'        28.6640   47.5300   65.3880 O.3       1 SUB1       -0.386
     34 O4'        26.6420   46.3020   66.6940 O.3       1 SUB1       -0.387
     35 O5'        24.7110   48.6960   66.3740 O.3       1 SUB1       -0.338
     36 O6'        23.6600   45.3090   65.2480 O.3       1 SUB1       -0.392
     37 H31        26.8696   43.6317   54.3750 H         1 SUB1        0.226
     38 H51        24.3433   46.2249   56.6131 H         1 SUB1        0.026
     39 H61        25.7603   45.8202   58.5049 H         1 SUB1        0.118
     40 H91        28.1115   43.3388   59.0191 H         1 SUB1        0.100
     41 H101       29.3276   45.5190   57.7564 H         1 SUB1        0.068
     42 H111       31.0286   44.9640   59.2044 H         1 SUB1        0.210
     43 H121       28.2051   47.1282   59.0652 H         1 SUB1        0.065
     44 H131       28.7717   45.5021   61.5749 H         1 SUB1        0.065
     45 H151       29.5881   47.9146   60.6731 H         1 SUB1        0.210
     46 H161       26.0029   45.4998   61.0301 H         1 SUB1        0.062
     47 H162       26.8541   46.1804   62.4644 H         1 SUB1        0.062
     48 H261       25.4341   50.6776   66.7891 H         1 SUB1        0.098
     49 H271       27.2717   48.8998   67.1257 H         1 SUB1        0.073
     50 H281       27.3398   48.3624   64.0633 H         1 SUB1        0.065
     51 H291       26.4187   46.1068   64.6223 H         1 SUB1        0.065
     52 H301       24.7088   47.9566   64.3481 H         1 SUB1        0.065
     53 H311       24.1789   46.3218   66.8777 H         1 SUB1        0.058
     54 H312       22.9292   47.0679   65.8163 H         1 SUB1        0.058
     55 H331       28.7064   47.2593   66.2976 H         1 SUB1        0.210
     56 H341       27.5020   45.8987   66.6755 H         1 SUB1        0.210
     57 H361       22.9789   44.8570   65.7322 H         1 SUB1        0.209
@<TRIPOS>BOND
     1    1    2 am 
     2    1    6 am 
     3    1    9 1  
     4    2    3 am 
     5    2    7 2  
     6    3    4 am 
     7    4    5 1  
     8    4    8 2  
     9    5    6 2  
    10    9   10 1  
    11    9   14 1  
    12   10   11 1  
    13   10   12 1  
    14   12   13 1  
    15   12   15 1  
    16   13   14 1  
    17   13   16 1  
    18   16   17 1  
    19   17   18 1  
    20   18   19 2  
    21   18   20 2  
    22   18   21 1  
    23   21   22 1  
    24   22   23 2  
    25   22   24 2  
    26   22   25 1  
    27   25   26 1  
    28   26   27 1  
    29   26   35 1  
    30   27   28 1  
    31   27   32 1  
    32   28   29 1  
    33   28   33 1  
    34   29   30 1  
    35   29   34 1  
    36   30   31 1  
    37   30   35 1  
    38   31   36 1  
    39    3   37 1  
    40    5   38 1  
    41    6   39 1  
    42    9   40 1  
    43   10   41 1  
    44   11   42 1  
    45   12   43 1  
    46   13   44 1  
    47   15   45 1  
    48   16   46 1  
    49   16   47 1  
    50   26   48 1  
    51   27   49 1  
    52   28   50 1  
    53   29   51 1  
    54   30   52 1  
    55   31   53 1  
    56   31   54 1  
    57   33   55 1  
    58   34   56 1  
    59   36   57 1  
@<TRIPOS>SUBSTRUCTURE
     1 SUB1        1 GROUP

