1ii5_ligand
  -I-interpret- 

 18 17  0  0  0  0  0  0  0  0999 V2000
   88.2610   -7.6600   -9.9900 N   0  3  0  0  0
   87.7440   -7.2760  -11.3340 C   0  0  0  0  0
   88.4740   -6.0300  -11.8110 C   0  0  0  0  0
   88.9690   -5.2920  -10.9430 O   0  0  0  0  0
   86.2340   -7.0120  -11.2670 C   0  0  0  0  0
   85.4370   -8.1940  -10.7460 C   0  0  0  0  0
   83.9370   -7.9440  -10.7070 C   0  0  0  0  0
   83.4250   -7.1400  -11.5200 O   0  5  0  0  0
   83.2600   -8.5670   -9.8620 O   0  0  0  0  0
   88.5430   -5.8010  -13.0330 O   0  5  0  0  0
   88.9980   -7.0308   -9.7125 H   0  0  0  0  0
   87.9398   -8.0886  -12.0490 H   0  0  0  0  0
   86.0519   -6.1597  -10.5959 H   0  0  0  0  0
   85.8743   -6.7539  -12.2739 H   0  0  0  0  0
   85.6179   -9.0599  -11.3997 H   0  0  0  0  0
   85.7856   -8.4365   -9.7313 H   0  0  0  0  0
   87.5190   -7.6116   -9.3095 H   0  0  0  0  0
   88.6338   -8.6083  -10.0361 H   0  0  0  0  0
  2  1  1  0  0  0
  2  5  1  0  0  0
  2  3  1  0  0  0
  3  4  2  0  0  0
  3 10  1  0  0  0
  5  6  1  0  0  0
  6  7  1  0  0  0
  7  9  2  0  0  0
  7  8  1  0  0  0
  1 18  1  0  0  0
  1 11  1  0  0  0
  2 12  1  0  0  0
  5 13  1  0  0  0
  5 14  1  0  0  0
  6 15  1  0  0  0
  6 16  1  0  0  0
  1 17  1  0  0  0
M  END
$$$$
