### 
### Created by X-TOOL on Mon Oct 24 22:04:54 2005
### 

@<TRIPOS>MOLECULE
1ii5_ligand
   18    17     1     0     0
SMALL
GAST_HUCK


@<TRIPOS>ATOM
      1 N          88.2610   -7.6600   -9.9900 N.4       1 SUB1        0.238
      2 CA         87.7440   -7.2760  -11.3340 C.3       1 SUB1        0.018
      3 C          88.4740   -6.0300  -11.8110 C.2       1 SUB1        0.076
      4 O          88.9690   -5.2920  -10.9430 O.co2     1 SUB1       -0.561
      5 CB         86.2340   -7.0120  -11.2670 C.3       1 SUB1        0.013
      6 CG         85.4370   -8.1940  -10.7460 C.3       1 SUB1       -0.006
      7 CD         83.9370   -7.9440  -10.7070 C.2       1 SUB1        0.028
      8 OE1        83.4250   -7.1400  -11.5200 O.co2     1 SUB1       -0.567
      9 OE2        83.2600   -8.5670   -9.8620 O.co2     1 SUB1       -0.567
     10 OXT        88.5430   -5.8010  -13.0330 O.co2     1 SUB1       -0.561
     11 H11        88.9980   -7.0308   -9.7125 H         1 SUB1        0.202
     12 H21        87.9398   -8.0886  -12.0490 H         1 SUB1        0.107
     13 H51        86.0519   -6.1597  -10.5959 H         1 SUB1        0.039
     14 H52        85.8743   -6.7539  -12.2739 H         1 SUB1        0.039
     15 H61        85.6179   -9.0599  -11.3997 H         1 SUB1        0.049
     16 H62        85.7856   -8.4365   -9.7313 H         1 SUB1        0.049
     17 H12        87.5190   -7.6116   -9.3095 H         1 SUB1        0.202
     18 H13        88.6338   -8.6083  -10.0361 H         1 SUB1        0.202
@<TRIPOS>BOND
     1    2    1 1  
     2    2    5 1  
     3    2    3 1  
     4    3    4 2  
     5    3   10 2  
     6    5    6 1  
     7    6    7 1  
     8    7    9 2  
     9    7    8 2  
    10    1   18 1  
    11    1   11 1  
    12    2   12 1  
    13    5   13 1  
    14    5   14 1  
    15    6   15 1  
    16    6   16 1  
    17    1   17 1  
@<TRIPOS>SUBSTRUCTURE
     1 SUB1        1 GROUP

