### 
### Created by X-TOOL on Tue Oct 25 00:27:23 2005
### 

@<TRIPOS>MOLECULE
1b39_ligand
   43    45     1     0     0
SMALL
GAST_HUCK


@<TRIPOS>ATOM
      1 PG         -3.8060   25.2170   15.7960 P.3       1 SUB1        0.143
      2 O1G        -4.1470   25.2770   17.2230 O.co2     1 SUB1       -0.614
      3 O2G        -3.5140   26.5690   15.2590 O.co2     1 SUB1       -0.614
      4 O3G        -4.9980   24.7420   15.0250 O.co2     1 SUB1       -0.614
      5 PB         -1.4360   24.5350   14.4010 P.3       1 SUB1        0.354
      6 O1B        -0.7930   25.8360   14.4390 O.co2     1 SUB1       -0.497
      7 O2B        -0.4340   23.4400   14.4360 O.co2     1 SUB1       -0.497
      8 O3B        -2.5790   24.2690   15.4730 O.3       1 SUB1       -0.297
      9 PA         -2.8020   25.3650   11.8640 P.3       1 SUB1        0.350
     10 O1A        -3.8840   24.6190   11.1230 O.co2     1 SUB1       -0.488
     11 O2A        -3.4190   26.6090   12.3770 O.co2     1 SUB1       -0.488
     12 O3A        -2.2630   24.3570   13.0150 O.3       1 SUB1       -0.186
     13 O5         -1.5540   25.6300   10.9420 O.3       1 SUB1       -0.280
     14 C5         -1.2960   24.5100   10.0350 C.3       1 SUB1        0.102
     15 C4          0.1480   24.6480    9.5540 C.3       1 SUB1        0.117
     16 O4          0.2470   25.7950    8.6900 O.3       1 SUB1       -0.345
     17 C3          1.0820   24.8900   10.7500 C.3       1 SUB1        0.114
     18 O3          2.3580   24.3110   10.3220 O.3       1 SUB1       -0.386
     19 C2          1.2020   26.4580   10.6800 C.3       1 SUB1        0.129
     20 O2          2.4490   26.8180   11.3240 O.3       1 SUB1       -0.385
     21 C1          1.1960   26.7160    9.1440 C.3       1 SUB1        0.172
     22 N9          0.5880   27.9960    8.7420 N.ar      1 SUB1       -0.260
     23 C8         -0.4270   28.5920    9.4270 C.ar      1 SUB1        0.142
     24 N7         -0.6080   29.8390    9.2460 N.ar      1 SUB1       -0.172
     25 C5          0.2980   30.1600    8.3500 C.ar      1 SUB1        0.238
     26 C6          0.5590   31.3880    7.7830 C.ar      1 SUB1        0.257
     27 N6         -0.0550   32.5380    8.0200 N.pl3     1 SUB1       -0.255
     28 N1          1.5820   31.4330    6.8990 N.ar      1 SUB1       -0.126
     29 C2          2.2910   30.2940    6.6180 C.ar      1 SUB1        0.199
     30 N3          2.1100   29.0770    7.1120 N.ar      1 SUB1       -0.126
     31 C4          1.0760   29.0740    7.9910 C.ar      1 SUB1        0.229
     32 H141       -1.9850   24.5511    9.1785 H         1 SUB1        0.064
     33 H142       -1.4276   23.5557   10.5661 H         1 SUB1        0.064
     34 H151        0.4503   23.7373    9.0163 H         1 SUB1        0.065
     35 H171        0.7237   24.5030   11.7153 H         1 SUB1        0.065
     36 H181        3.0011   24.4191   11.0128 H         1 SUB1        0.210
     37 H191        0.3601   26.9677   11.1713 H         1 SUB1        0.067
     38 H201        3.1715   26.4052   10.8657 H         1 SUB1        0.210
     39 H211        2.1974   26.5865    8.7077 H         1 SUB1        0.088
     40 H231       -1.0579   28.0251   10.1019 H         1 SUB1        0.118
     41 H271        0.2402   33.3912    7.5242 H         1 SUB1        0.235
     42 H272       -0.8275   32.5788    8.7001 H         1 SUB1        0.235
     43 H291        3.0994   30.4015    5.9038 H         1 SUB1        0.164
@<TRIPOS>BOND
     1    1    2 2  
     2    1    3 2  
     3    1    4 2  
     4    8    1 1  
     5    5    6 2  
     6    5    7 2  
     7    5    8 1  
     8   12    5 1  
     9    9   10 2  
    10    9   11 2  
    11    9   12 1  
    12    9   13 1  
    13   13   14 1  
    14   14   15 1  
    15   15   16 1  
    16   15   17 1  
    17   16   21 1  
    18   17   18 1  
    19   17   19 1  
    20   19   20 1  
    21   19   21 1  
    22   21   22 1  
    23   22   23 ar 
    24   22   31 ar 
    25   23   24 ar 
    26   24   25 ar 
    27   25   26 ar 
    28   25   31 ar 
    29   26   27 1  
    30   26   28 ar 
    31   28   29 ar 
    32   29   30 ar 
    33   30   31 ar 
    34   14   32 1  
    35   14   33 1  
    36   15   34 1  
    37   17   35 1  
    38   18   36 1  
    39   19   37 1  
    40   20   38 1  
    41   21   39 1  
    42   23   40 1  
    43   27   41 1  
    44   27   42 1  
    45   29   43 1  
@<TRIPOS>SUBSTRUCTURE
     1 SUB1        1 GROUP

