### 
### Created by X-TOOL on Mon Oct 24 22:19:27 2005
### 

@<TRIPOS>MOLECULE
2bsu_ligand
  141   141     1     0     0
SMALL
GAST_HUCK


@<TRIPOS>ATOM
      1 N           4.5230   10.4610   14.7190 N.4       1 SUB1        0.240
      2 CA          3.8600   11.7480   15.0360 C.3       1 SUB1        0.089
      3 C           4.2260   12.7440   13.9710 C.2       1 SUB1        0.229
      4 O           5.3840   12.8820   13.6010 O.2       1 SUB1       -0.391
      5 CB          4.3250   12.2750   16.3820 C.3       1 SUB1        0.104
      6 OG          3.7820   13.5540   16.6230 O.3       1 SUB1       -0.387
      7 N           3.2250   13.4480   13.4830 N.am      1 SUB1       -0.261
      8 CA          3.4540   14.4190   12.4470 C.3       1 SUB1        0.131
      9 C           4.4180   15.5040   12.8260 C.2       1 SUB1        0.204
     10 O           4.5300   15.9070   13.9850 O.2       1 SUB1       -0.394
     11 CB          2.1500   15.0720   12.0420 C.3       1 SUB1       -0.010
     12 CG          1.2210   14.2060   11.2190 C.3       1 SUB1       -0.043
     13 CD1        -0.0570   14.9720   10.9990 C.3       1 SUB1       -0.062
     14 CD2         1.8790   13.8520    9.8950 C.3       1 SUB1       -0.062
     15 N           5.1210   15.9650   11.8100 N.am      1 SUB1       -0.262
     16 CA          6.0430   17.0470   11.9670 C.3       1 SUB1        0.139
     17 C           5.0840   18.1700   12.3360 C.2       1 SUB1        0.206
     18 O           4.0010   18.2740   11.7570 O.2       1 SUB1       -0.394
     19 CB          6.6980   17.3260   10.6380 C.3       1 SUB1        0.016
     20 CG          7.6290   18.4890   10.6780 C.ar      1 SUB1       -0.049
     21 CD1         7.8010   19.2890    9.5600 C.ar      1 SUB1       -0.068
     22 CD2         8.3490   18.7870   11.8300 C.ar      1 SUB1       -0.068
     23 CE1         8.6670   20.3570    9.5840 C.ar      1 SUB1       -0.040
     24 CE2         9.2240   19.8550   11.8650 C.ar      1 SUB1       -0.040
     25 CZ          9.3750   20.6320   10.7350 C.ar      1 SUB1        0.080
     26 OH         10.2450   21.6790   10.7520 O.3       1 SUB1       -0.338
     27 N           5.4740   19.0070   13.2850 N.am      1 SUB1       -0.262
     28 CA          4.5990   20.0700   13.7420 C.3       1 SUB1        0.148
     29 C           4.7900   21.4040   13.0500 C.2       1 SUB1        0.206
     30 O           3.8660   22.2130   12.9910 O.2       1 SUB1       -0.394
     31 CB          4.7680   20.2510   15.2510 C.3       1 SUB1        0.077
     32 CG          3.6990   21.1340   15.8500 C.2       1 SUB1        0.178
     33 OD1         2.5140   20.9420   15.5950 O.2       1 SUB1       -0.397
     34 ND2         4.1110   22.1040   16.6580 N.am      1 SUB1       -0.301
     35 N           5.9830   21.6370   12.5220 N.am      1 SUB1       -0.261
     36 CA          6.2540   22.9060   11.8720 C.3       1 SUB1        0.156
     37 C           6.4840   22.7800   10.3820 C.2       1 SUB1        0.206
     38 O           7.5790   23.0340    9.8820 O.2       1 SUB1       -0.394
     39 CB          7.4640   23.5980   12.5080 C.3       1 SUB1        0.092
     40 OG1         8.6090   22.7480   12.3980 O.3       1 SUB1       -0.387
     41 CG2         7.1940   23.8920   13.9800 C.3       1 SUB1       -0.035
     42 N           5.4360   22.3890    9.6740 N.am      1 SUB1       -0.263
     43 CA          5.5150   22.2510    8.2340 C.3       1 SUB1        0.133
     44 C           5.5430   23.6400    7.6160 C.2       1 SUB1        0.204
     45 O           4.7450   24.5050    7.9730 O.2       1 SUB1       -0.394
     46 CB          4.3040   21.5060    7.6950 C.3       1 SUB1       -0.006
     47 CG1         4.2850   21.5930    6.1780 C.3       1 SUB1       -0.058
     48 CG2         4.3320   20.0710    8.1930 C.3       1 SUB1       -0.058
     49 N           6.4660   23.8510    6.6900 N.am      1 SUB1       -0.264
     50 CA          6.5790   25.1410    6.0300 C.3       1 SUB1        0.128
     51 C           5.9060   25.0470    4.6770 C.2       1 SUB1        0.204
     52 O           6.0020   24.0270    4.0120 O.2       1 SUB1       -0.394
     53 CB          8.0410   25.5070    5.8570 C.3       1 SUB1       -0.024
     54 N           5.2120   26.1040    4.2760 N.am      1 SUB1       -0.261
     55 CA          4.5590   26.1110    2.9750 C.3       1 SUB1        0.157
     56 C           5.6830   26.2790    1.9630 C.2       1 SUB1        0.207
     57 O           6.7010   26.8940    2.2700 O.2       1 SUB1       -0.394
     58 CB          3.5740   27.2840    2.8520 C.3       1 SUB1        0.092
     59 OG1         4.2720   28.5150    3.0700 O.3       1 SUB1       -0.387
     60 CG2         2.4600   27.1530    3.8800 C.3       1 SUB1       -0.035
     61 N           5.5150   25.7330    0.7650 N.am      1 SUB1       -0.268
     62 CA          6.5600   25.8350   -0.2460 C.3       1 SUB1        0.082
     63 C           6.5360   27.1820   -0.9580 C.2       1 SUB1        0.053
     64 O           5.7610   28.0540   -0.5130 O.co2     1 SUB1       -0.564
     65 CB          6.4370   24.6810   -1.2510 C.3       1 SUB1       -0.016
     66 CG          5.4830   24.7210   -2.4460 C.3       1 SUB1       -0.042
     67 CD1         5.1600   23.2850   -2.8250 C.3       1 SUB1       -0.062
     68 CD2         4.2130   25.4680   -2.1210 C.3       1 SUB1       -0.062
     69 OXT         7.3010   27.3540   -1.9330 O.co2     1 SUB1       -0.564
     70 H11         4.2885    9.7797   15.4239 H         1 SUB1        0.202
     71 H12         5.5220   10.5936   14.6991 H         1 SUB1        0.202
     72 H13         4.2094   10.1343   13.8185 H         1 SUB1        0.202
     73 H21         2.7696   11.6048   15.0561 H         1 SUB1        0.112
     74 H51         5.4230   12.3408   16.3859 H         1 SUB1        0.064
     75 H52         3.9961   11.5864   17.1742 H         1 SUB1        0.064
     76 H61         4.0815   13.8700   17.4674 H         1 SUB1        0.210
     77 H71         2.2999   13.3063   13.8352 H         1 SUB1        0.188
     78 H81         3.8673   13.8857   11.5782 H         1 SUB1        0.080
     79 H111        2.3882   15.9700   11.4530 H         1 SUB1        0.032
     80 H112        1.6177   15.3654   12.9588 H         1 SUB1        0.032
     81 H121        1.0000   13.2785   11.7674 H         1 SUB1        0.030
     82 H131       -0.7513   14.3629   10.4016 H         1 SUB1        0.023
     83 H132        0.1636   15.9074   10.4639 H         1 SUB1        0.023
     84 H133       -0.5167   15.2051   11.9707 H         1 SUB1        0.023
     85 H141        2.8080   13.2944   10.0848 H         1 SUB1        0.023
     86 H142        2.1115   14.7745    9.3428 H         1 SUB1        0.023
     87 H143        1.1938   13.2309    9.2994 H         1 SUB1        0.023
     88 H151        5.0067   15.5481   10.9083 H         1 SUB1        0.189
     89 H161        6.7969   16.8603   12.7459 H         1 SUB1        0.082
     90 H191        5.9119   17.5322    9.8967 H         1 SUB1        0.045
     91 H192        7.2649   16.4341   10.3330 H         1 SUB1        0.045
     92 H211        7.2459   19.0703    8.6549 H         1 SUB1        0.053
     93 H221        8.2215   18.1719   12.7135 H         1 SUB1        0.053
     94 H231        8.7922   20.9782    8.7045 H         1 SUB1        0.052
     95 H241        9.7833   20.0792   12.7661 H         1 SUB1        0.052
     96 H261        9.9844   22.2949   11.4268 H         1 SUB1        0.246
     97 H271        6.3821   18.9052   13.6913 H         1 SUB1        0.189
     98 H281        3.5658   19.7475   13.5458 H         1 SUB1        0.083
     99 H311        5.7507   20.7061   15.4440 H         1 SUB1        0.055
    100 H312        4.7204   19.2631   15.7325 H         1 SUB1        0.055
    101 H341        3.4453   22.7181   17.0820 H         1 SUB1        0.181
    102 H342        5.0869   22.2203   16.8425 H         1 SUB1        0.181
    103 H351        6.6967   20.9382   12.5715 H         1 SUB1        0.188
    104 H361        5.3727   23.5469   12.0221 H         1 SUB1        0.083
    105 H391        7.6586   24.5432   11.9801 H         1 SUB1        0.064
    106 H401        8.7871   22.5756   11.4809 H         1 SUB1        0.210
    107 H411        8.0708   24.3881   14.4216 H         1 SUB1        0.026
    108 H412        6.9992   22.9494   14.5125 H         1 SUB1        0.026
    109 H413        6.3173   24.5506   14.0676 H         1 SUB1        0.026
    110 H421        4.5754   22.1855   10.1409 H         1 SUB1        0.188
    111 H431        6.4310   21.7033    7.9676 H         1 SUB1        0.080
    112 H461        3.3918   21.9864    8.0786 H         1 SUB1        0.034
    113 H471        3.4082   21.0534    5.7908 H         1 SUB1        0.023
    114 H472        5.2022   21.1404    5.7732 H         1 SUB1        0.023
    115 H473        4.2308   22.6481    5.8719 H         1 SUB1        0.023
    116 H481        4.3449   20.0648    9.2929 H         1 SUB1        0.023
    117 H482        5.2337   19.5685    7.8129 H         1 SUB1        0.023
    118 H483        3.4377   19.5407    7.8338 H         1 SUB1        0.023
    119 H491        7.0935   23.1130    6.4416 H         1 SUB1        0.188
    120 H501        6.0809   25.9112    6.6372 H         1 SUB1        0.080
    121 H531        8.1177   26.4839    5.3571 H         1 SUB1        0.028
    122 H532        8.5407   24.7417    5.2449 H         1 SUB1        0.028
    123 H533        8.5247   25.5609    6.8434 H         1 SUB1        0.028
    124 H541        5.1368   26.9030    4.8726 H         1 SUB1        0.188
    125 H551        4.0248   25.1638    2.8095 H         1 SUB1        0.083
    126 H581        3.1370   27.2847    1.8425 H         1 SUB1        0.064
    127 H591        4.9592   28.6074    2.4206 H         1 SUB1        0.210
    128 H601        1.7653   27.9997    3.7777 H         1 SUB1        0.026
    129 H602        2.8924   27.1537    4.8914 H         1 SUB1        0.026
    130 H603        1.9168   26.2110    3.7141 H         1 SUB1        0.026
    131 H611        4.6659   25.2485    0.5546 H         1 SUB1        0.190
    132 H621        7.5312   25.7427    0.2622 H         1 SUB1        0.078
    133 H651        6.1518   23.7956   -0.6639 H         1 SUB1        0.033
    134 H652        7.4433   24.5344   -1.6702 H         1 SUB1        0.033
    135 H661        5.9808   25.2212   -3.2898 H         1 SUB1        0.030
    136 H671        4.4734   23.2782   -3.6844 H         1 SUB1        0.023
    137 H672        4.6847   22.7787   -1.9720 H         1 SUB1        0.023
    138 H673        6.0881   22.7589   -3.0930 H         1 SUB1        0.023
    139 H681        4.4573   26.5053   -1.8482 H         1 SUB1        0.023
    140 H682        3.7044   24.9773   -1.2780 H         1 SUB1        0.023
    141 H683        3.5514   25.4661   -2.9998 H         1 SUB1        0.023
@<TRIPOS>BOND
     1    1    2 1  
     2    2    3 1  
     3    2    5 1  
     4    3    4 2  
     5    3    7 am 
     6    5    6 1  
     7    7    8 1  
     8    8    9 1  
     9    8   11 1  
    10    9   10 2  
    11    9   15 am 
    12   11   12 1  
    13   12   13 1  
    14   12   14 1  
    15   15   16 1  
    16   16   17 1  
    17   16   19 1  
    18   17   18 2  
    19   17   27 am 
    20   19   20 1  
    21   20   21 ar 
    22   20   22 ar 
    23   21   23 ar 
    24   22   24 ar 
    25   23   25 ar 
    26   24   25 ar 
    27   25   26 1  
    28   27   28 1  
    29   28   29 1  
    30   28   31 1  
    31   29   30 2  
    32   29   35 am 
    33   31   32 1  
    34   32   33 2  
    35   32   34 am 
    36   35   36 1  
    37   36   37 1  
    38   36   39 1  
    39   37   38 2  
    40   37   42 am 
    41   39   40 1  
    42   39   41 1  
    43   42   43 1  
    44   43   44 1  
    45   43   46 1  
    46   44   45 2  
    47   44   49 am 
    48   46   47 1  
    49   46   48 1  
    50   49   50 1  
    51   50   51 1  
    52   50   53 1  
    53   51   52 2  
    54   51   54 am 
    55   54   55 1  
    56   55   56 1  
    57   55   58 1  
    58   56   57 2  
    59   56   61 am 
    60   58   59 1  
    61   58   60 1  
    62   61   62 1  
    63   62   63 1  
    64   62   65 1  
    65   63   64 2  
    66   63   69 2  
    67   65   66 1  
    68   66   67 1  
    69   66   68 1  
    70    1   70 1  
    71    1   71 1  
    72    1   72 1  
    73    2   73 1  
    74    5   74 1  
    75    5   75 1  
    76    6   76 1  
    77    7   77 1  
    78    8   78 1  
    79   11   79 1  
    80   11   80 1  
    81   12   81 1  
    82   13   82 1  
    83   13   83 1  
    84   13   84 1  
    85   14   85 1  
    86   14   86 1  
    87   14   87 1  
    88   15   88 1  
    89   16   89 1  
    90   19   90 1  
    91   19   91 1  
    92   21   92 1  
    93   22   93 1  
    94   23   94 1  
    95   24   95 1  
    96   26   96 1  
    97   27   97 1  
    98   28   98 1  
    99   31   99 1  
   100   31  100 1  
   101   34  101 1  
   102   34  102 1  
   103   35  103 1  
   104   36  104 1  
   105   39  105 1  
   106   40  106 1  
   107   41  107 1  
   108   41  108 1  
   109   41  109 1  
   110   42  110 1  
   111   43  111 1  
   112   46  112 1  
   113   47  113 1  
   114   47  114 1  
   115   47  115 1  
   116   48  116 1  
   117   48  117 1  
   118   48  118 1  
   119   49  119 1  
   120   50  120 1  
   121   53  121 1  
   122   53  122 1  
   123   53  123 1  
   124   54  124 1  
   125   55  125 1  
   126   58  126 1  
   127   59  127 1  
   128   60  128 1  
   129   60  129 1  
   130   60  130 1  
   131   61  131 1  
   132   62  132 1  
   133   65  133 1  
   134   65  134 1  
   135   66  135 1  
   136   67  136 1  
   137   67  137 1  
   138   67  138 1  
   139   68  139 1  
   140   68  140 1  
   141   68  141 1  
@<TRIPOS>SUBSTRUCTURE
     1 SUB1        1 GROUP

