2bsu_ligand
  -I-interpret- 

141141  0  0  0  0  0  0  0  0999 V2000
    4.5230   10.4610   14.7190 N   0  3  0  0  0
    3.8600   11.7480   15.0360 C   0  0  0  0  0
    4.2260   12.7440   13.9710 C   0  0  0  0  0
    5.3840   12.8820   13.6010 O   0  0  0  0  0
    4.3250   12.2750   16.3820 C   0  0  0  0  0
    3.7820   13.5540   16.6230 O   0  0  0  0  0
    3.2250   13.4480   13.4830 N   0  0  0  0  0
    3.4540   14.4190   12.4470 C   0  0  0  0  0
    4.4180   15.5040   12.8260 C   0  0  0  0  0
    4.5300   15.9070   13.9850 O   0  0  0  0  0
    2.1500   15.0720   12.0420 C   0  0  0  0  0
    1.2210   14.2060   11.2190 C   0  0  0  0  0
   -0.0570   14.9720   10.9990 C   0  0  0  0  0
    1.8790   13.8520    9.8950 C   0  0  0  0  0
    5.1210   15.9650   11.8100 N   0  0  0  0  0
    6.0430   17.0470   11.9670 C   0  0  0  0  0
    5.0840   18.1700   12.3360 C   0  0  0  0  0
    4.0010   18.2740   11.7570 O   0  0  0  0  0
    6.6980   17.3260   10.6380 C   0  0  0  0  0
    7.6290   18.4890   10.6780 C   0  0  0  0  0
    7.8010   19.2890    9.5600 C   0  0  0  0  0
    8.3490   18.7870   11.8300 C   0  0  0  0  0
    8.6670   20.3570    9.5840 C   0  0  0  0  0
    9.2240   19.8550   11.8650 C   0  0  0  0  0
    9.3750   20.6320   10.7350 C   0  0  0  0  0
   10.2450   21.6790   10.7520 O   0  0  0  0  0
    5.4740   19.0070   13.2850 N   0  0  0  0  0
    4.5990   20.0700   13.7420 C   0  0  0  0  0
    4.7900   21.4040   13.0500 C   0  0  0  0  0
    3.8660   22.2130   12.9910 O   0  0  0  0  0
    4.7680   20.2510   15.2510 C   0  0  0  0  0
    3.6990   21.1340   15.8500 C   0  0  0  0  0
    2.5140   20.9420   15.5950 O   0  0  0  0  0
    4.1110   22.1040   16.6580 N   0  0  0  0  0
    5.9830   21.6370   12.5220 N   0  0  0  0  0
    6.2540   22.9060   11.8720 C   0  0  0  0  0
    6.4840   22.7800   10.3820 C   0  0  0  0  0
    7.5790   23.0340    9.8820 O   0  0  0  0  0
    7.4640   23.5980   12.5080 C   0  0  0  0  0
    8.6090   22.7480   12.3980 O   0  0  0  0  0
    7.1940   23.8920   13.9800 C   0  0  0  0  0
    5.4360   22.3890    9.6740 N   0  0  0  0  0
    5.5150   22.2510    8.2340 C   0  0  0  0  0
    5.5430   23.6400    7.6160 C   0  0  0  0  0
    4.7450   24.5050    7.9730 O   0  0  0  0  0
    4.3040   21.5060    7.6950 C   0  0  0  0  0
    4.2850   21.5930    6.1780 C   0  0  0  0  0
    4.3320   20.0710    8.1930 C   0  0  0  0  0
    6.4660   23.8510    6.6900 N   0  0  0  0  0
    6.5790   25.1410    6.0300 C   0  0  0  0  0
    5.9060   25.0470    4.6770 C   0  0  0  0  0
    6.0020   24.0270    4.0120 O   0  0  0  0  0
    8.0410   25.5070    5.8570 C   0  0  0  0  0
    5.2120   26.1040    4.2760 N   0  0  0  0  0
    4.5590   26.1110    2.9750 C   0  0  0  0  0
    5.6830   26.2790    1.9630 C   0  0  0  0  0
    6.7010   26.8940    2.2700 O   0  0  0  0  0
    3.5740   27.2840    2.8520 C   0  0  0  0  0
    4.2720   28.5150    3.0700 O   0  0  0  0  0
    2.4600   27.1530    3.8800 C   0  0  0  0  0
    5.5150   25.7330    0.7650 N   0  0  0  0  0
    6.5600   25.8350   -0.2460 C   0  0  0  0  0
    6.5360   27.1820   -0.9580 C   0  0  0  0  0
    5.7610   28.0540   -0.5130 O   0  0  0  0  0
    6.4370   24.6810   -1.2510 C   0  0  0  0  0
    5.4830   24.7210   -2.4460 C   0  0  0  0  0
    5.1600   23.2850   -2.8250 C   0  0  0  0  0
    4.2130   25.4680   -2.1210 C   0  0  0  0  0
    7.3010   27.3540   -1.9330 O   0  5  0  0  0
    4.2885    9.7797   15.4239 H   0  0  0  0  0
    5.5220   10.5936   14.6991 H   0  0  0  0  0
    4.2094   10.1343   13.8185 H   0  0  0  0  0
    2.7696   11.6048   15.0561 H   0  0  0  0  0
    5.4230   12.3408   16.3859 H   0  0  0  0  0
    3.9961   11.5864   17.1742 H   0  0  0  0  0
    4.0815   13.8700   17.4674 H   0  0  0  0  0
    2.2999   13.3063   13.8352 H   0  0  0  0  0
    3.8673   13.8857   11.5782 H   0  0  0  0  0
    2.3882   15.9700   11.4530 H   0  0  0  0  0
    1.6177   15.3654   12.9588 H   0  0  0  0  0
    1.0000   13.2785   11.7674 H   0  0  0  0  0
   -0.7513   14.3629   10.4016 H   0  0  0  0  0
    0.1636   15.9074   10.4639 H   0  0  0  0  0
   -0.5167   15.2051   11.9707 H   0  0  0  0  0
    2.8080   13.2944   10.0848 H   0  0  0  0  0
    2.1115   14.7745    9.3428 H   0  0  0  0  0
    1.1938   13.2309    9.2994 H   0  0  0  0  0
    5.0067   15.5481   10.9083 H   0  0  0  0  0
    6.7969   16.8603   12.7459 H   0  0  0  0  0
    5.9119   17.5322    9.8967 H   0  0  0  0  0
    7.2649   16.4341   10.3330 H   0  0  0  0  0
    7.2459   19.0703    8.6549 H   0  0  0  0  0
    8.2215   18.1719   12.7135 H   0  0  0  0  0
    8.7922   20.9782    8.7045 H   0  0  0  0  0
    9.7833   20.0792   12.7661 H   0  0  0  0  0
    9.9844   22.2949   11.4268 H   0  0  0  0  0
    6.3821   18.9052   13.6913 H   0  0  0  0  0
    3.5658   19.7475   13.5458 H   0  0  0  0  0
    5.7507   20.7061   15.4440 H   0  0  0  0  0
    4.7204   19.2631   15.7325 H   0  0  0  0  0
    3.4453   22.7181   17.0820 H   0  0  0  0  0
    5.0869   22.2203   16.8425 H   0  0  0  0  0
    6.6967   20.9382   12.5715 H   0  0  0  0  0
    5.3727   23.5469   12.0221 H   0  0  0  0  0
    7.6586   24.5432   11.9801 H   0  0  0  0  0
    8.7871   22.5756   11.4809 H   0  0  0  0  0
    8.0708   24.3881   14.4216 H   0  0  0  0  0
    6.9992   22.9494   14.5125 H   0  0  0  0  0
    6.3173   24.5506   14.0676 H   0  0  0  0  0
    4.5754   22.1855   10.1409 H   0  0  0  0  0
    6.4310   21.7033    7.9676 H   0  0  0  0  0
    3.3918   21.9864    8.0786 H   0  0  0  0  0
    3.4082   21.0534    5.7908 H   0  0  0  0  0
    5.2022   21.1404    5.7732 H   0  0  0  0  0
    4.2308   22.6481    5.8719 H   0  0  0  0  0
    4.3449   20.0648    9.2929 H   0  0  0  0  0
    5.2337   19.5685    7.8129 H   0  0  0  0  0
    3.4377   19.5407    7.8338 H   0  0  0  0  0
    7.0935   23.1130    6.4416 H   0  0  0  0  0
    6.0809   25.9112    6.6372 H   0  0  0  0  0
    8.1177   26.4839    5.3571 H   0  0  0  0  0
    8.5407   24.7417    5.2449 H   0  0  0  0  0
    8.5247   25.5609    6.8434 H   0  0  0  0  0
    5.1368   26.9030    4.8726 H   0  0  0  0  0
    4.0248   25.1638    2.8095 H   0  0  0  0  0
    3.1370   27.2847    1.8425 H   0  0  0  0  0
    4.9592   28.6074    2.4206 H   0  0  0  0  0
    1.7653   27.9997    3.7777 H   0  0  0  0  0
    2.8924   27.1537    4.8914 H   0  0  0  0  0
    1.9168   26.2110    3.7141 H   0  0  0  0  0
    4.6659   25.2485    0.5546 H   0  0  0  0  0
    7.5312   25.7427    0.2622 H   0  0  0  0  0
    6.1518   23.7956   -0.6639 H   0  0  0  0  0
    7.4433   24.5344   -1.6702 H   0  0  0  0  0
    5.9808   25.2212   -3.2898 H   0  0  0  0  0
    4.4734   23.2782   -3.6844 H   0  0  0  0  0
    4.6847   22.7787   -1.9720 H   0  0  0  0  0
    6.0881   22.7589   -3.0930 H   0  0  0  0  0
    4.4573   26.5053   -1.8482 H   0  0  0  0  0
    3.7044   24.9773   -1.2780 H   0  0  0  0  0
    3.5514   25.4661   -2.9998 H   0  0  0  0  0
  1  2  1  0  0  0
  2  3  1  0  0  0
  2  5  1  0  0  0
  3  4  2  0  0  0
  3  7  1  0  0  0
  5  6  1  0  0  0
  7  8  1  0  0  0
  8  9  1  0  0  0
  8 11  1  0  0  0
  9 10  2  0  0  0
  9 15  1  0  0  0
 11 12  1  0  0  0
 12 13  1  0  0  0
 12 14  1  0  0  0
 15 16  1  0  0  0
 16 17  1  0  0  0
 16 19  1  0  0  0
 17 18  2  0  0  0
 17 27  1  0  0  0
 19 20  1  0  0  0
 20 21  4  0  0  0
 20 22  4  0  0  0
 21 23  4  0  0  0
 22 24  4  0  0  0
 23 25  4  0  0  0
 24 25  4  0  0  0
 25 26  1  0  0  0
 27 28  1  0  0  0
 28 29  1  0  0  0
 28 31  1  0  0  0
 29 30  2  0  0  0
 29 35  1  0  0  0
 31 32  1  0  0  0
 32 33  2  0  0  0
 32 34  1  0  0  0
 35 36  1  0  0  0
 36 37  1  0  0  0
 36 39  1  0  0  0
 37 38  2  0  0  0
 37 42  1  0  0  0
 39 40  1  0  0  0
 39 41  1  0  0  0
 42 43  1  0  0  0
 43 44  1  0  0  0
 43 46  1  0  0  0
 44 45  2  0  0  0
 44 49  1  0  0  0
 46 47  1  0  0  0
 46 48  1  0  0  0
 49 50  1  0  0  0
 50 51  1  0  0  0
 50 53  1  0  0  0
 51 52  2  0  0  0
 51 54  1  0  0  0
 54 55  1  0  0  0
 55 56  1  0  0  0
 55 58  1  0  0  0
 56 57  2  0  0  0
 56 61  1  0  0  0
 58 59  1  0  0  0
 58 60  1  0  0  0
 61 62  1  0  0  0
 62 63  1  0  0  0
 62 65  1  0  0  0
 63 64  2  0  0  0
 63 69  1  0  0  0
 65 66  1  0  0  0
 66 67  1  0  0  0
 66 68  1  0  0  0
  1 70  1  0  0  0
  1 71  1  0  0  0
  1 72  1  0  0  0
  2 73  1  0  0  0
  5 74  1  0  0  0
  5 75  1  0  0  0
  6 76  1  0  0  0
  7 77  1  0  0  0
  8 78  1  0  0  0
 11 79  1  0  0  0
 11 80  1  0  0  0
 12 81  1  0  0  0
 13 82  1  0  0  0
 13 83  1  0  0  0
 13 84  1  0  0  0
 14 85  1  0  0  0
 14 86  1  0  0  0
 14 87  1  0  0  0
 15 88  1  0  0  0
 16 89  1  0  0  0
 19 90  1  0  0  0
 19 91  1  0  0  0
 21 92  1  0  0  0
 22 93  1  0  0  0
 23 94  1  0  0  0
 24 95  1  0  0  0
 26 96  1  0  0  0
 27 97  1  0  0  0
 28 98  1  0  0  0
 31 99  1  0  0  0
 31100  1  0  0  0
 34101  1  0  0  0
 34102  1  0  0  0
 35103  1  0  0  0
 36104  1  0  0  0
 39105  1  0  0  0
 40106  1  0  0  0
 41107  1  0  0  0
 41108  1  0  0  0
 41109  1  0  0  0
 42110  1  0  0  0
 43111  1  0  0  0
 46112  1  0  0  0
 47113  1  0  0  0
 47114  1  0  0  0
 47115  1  0  0  0
 48116  1  0  0  0
 48117  1  0  0  0
 48118  1  0  0  0
 49119  1  0  0  0
 50120  1  0  0  0
 53121  1  0  0  0
 53122  1  0  0  0
 53123  1  0  0  0
 54124  1  0  0  0
 55125  1  0  0  0
 58126  1  0  0  0
 59127  1  0  0  0
 60128  1  0  0  0
 60129  1  0  0  0
 60130  1  0  0  0
 61131  1  0  0  0
 62132  1  0  0  0
 65133  1  0  0  0
 65134  1  0  0  0
 66135  1  0  0  0
 67136  1  0  0  0
 67137  1  0  0  0
 67138  1  0  0  0
 68139  1  0  0  0
 68140  1  0  0  0
 68141  1  0  0  0
M  END
$$$$
