2hxm_ligand
  -I-interpret- 

 38 39  0  0  0  0  0  0  0  0999 V2000
    6.0650   -0.8490   -3.0280 C   0  0  0  0  0
    6.8020    1.0850   -4.1360 C   0  0  0  0  0
    5.9380   -0.7000   -5.4020 C   0  0  0  0  0
    5.7310   -1.4370   -4.2440 C   0  0  0  0  0
    6.6000    0.3950   -2.9940 N   0  0  0  0  0
    6.4710    0.5320   -5.3170 N   0  0  0  0  0
    8.8620    8.5650    3.3050 O   0  0  0  0  0
    9.4790    7.7800    2.5630 C   0  0  0  0  0
   10.3140    8.1940    1.7210 O   0  5  0  0  0
    9.2320    6.3030    2.6630 C   0  0  0  0  0
    9.5340    5.5190    1.5570 C   0  0  0  0  0
    9.3320    4.1490    1.6150 C   0  0  0  0  0
    8.7200    5.7090    3.8260 C   0  0  0  0  0
    8.5090    4.3210    3.8760 C   0  0  0  0  0
    8.8220    3.5410    2.7580 C   0  0  0  0  0
    8.6970    2.2620    2.6190 C   0  0  0  0  0
    8.6400    1.1550    2.1300 N   0  0  0  0  0
    8.4600   -0.0520    2.7110 O   0  0  0  0  0
    8.0690   -1.1480    1.8750 C   0  0  0  0  0
    6.5520   -1.1190    1.6880 C   0  0  0  0  0
    6.1440   -1.7410    0.4640 O   0  0  0  0  0
    6.2950   -1.0650   -0.6980 N   0  0  0  0  0
    5.8720   -1.5810   -1.7650 C   0  0  0  0  0
    5.6610   -1.1590   -6.5300 O   0  0  0  0  0
    7.2970    2.2300   -4.1210 O   0  0  0  0  0
    5.3194   -2.4454   -4.2860 H   0  0  0  0  0
    6.8521    0.8133   -2.0985 H   0  0  0  0  0
    6.6290    1.0629   -6.1735 H   0  0  0  0  0
    9.9271    5.9779    0.6498 H   0  0  0  0  0
    9.5775    3.5357    0.7480 H   0  0  0  0  0
    8.4852    6.3260    4.6933 H   0  0  0  0  0
    8.1058    3.8570    4.7761 H   0  0  0  0  0
    8.5222    1.9953    3.6613 H   0  0  0  0  0
    8.3627   -2.0881    2.3420 H   0  0  0  0  0
    8.5594   -1.0624    0.9053 H   0  0  0  0  0
    6.2342   -0.0767    1.6603 H   0  0  0  0  0
    6.0986   -1.6673    2.5138 H   0  0  0  0  0
    5.3729   -2.5500   -1.7545 H   0  0  0  0  0
  1  4  2  0  0  0
  1  5  1  0  0  0
 23  1  1  0  0  0
  5  2  1  0  0  0
  2  6  1  0  0  0
  2 25  2  0  0  0
  4  3  1  0  0  0
  3  6  1  0  0  0
  3 24  2  0  0  0
  8  7  2  0  0  0
  8  9  1  0  0  0
 10  8  1  0  0  0
 11 10  4  0  0  0
 13 10  4  0  0  0
 12 11  4  0  0  0
 15 12  4  0  0  0
 14 13  4  0  0  0
 15 14  4  0  0  0
 16 15  1  0  0  0
 17 16  2  0  0  0
 18 17  1  0  0  0
 19 18  1  0  0  0
 20 19  1  0  0  0
 21 20  1  0  0  0
 22 21  1  0  0  0
 22 23  2  0  0  0
  4 26  1  0  0  0
  5 27  1  0  0  0
  6 28  1  0  0  0
 11 29  1  0  0  0
 12 30  1  0  0  0
 13 31  1  0  0  0
 14 32  1  0  0  0
 16 33  1  0  0  0
 19 34  1  0  0  0
 19 35  1  0  0  0
 20 36  1  0  0  0
 20 37  1  0  0  0
 23 38  1  0  0  0
M  END
$$$$
