### 
### Created by X-TOOL on Sun Jun  3 11:29:25 2007
### 

@<TRIPOS>MOLECULE
2hxm_ligand
   38    39     1     0     0
SMALL
GAST_HUCK


@<TRIPOS>ATOM
      1 C1          6.0650   -0.8490   -3.0280 C.2       1 SUB1        0.095
      2 C3          6.8020    1.0850   -4.1360 C.2       1 SUB1        0.323
      3 C5          5.9380   -0.7000   -5.4020 C.2       1 SUB1        0.181
      4 C6          5.7310   -1.4370   -4.2440 C.2       1 SUB1        0.008
      5 N2          6.6000    0.3950   -2.9940 N.am      1 SUB1       -0.204
      6 N4          6.4710    0.5320   -5.3170 N.am      1 SUB1       -0.188
      7 O37         8.8620    8.5650    3.3050 O.2       1 SUB1       -0.550
      8 C35         9.4790    7.7800    2.5630 C.2       1 SUB1        0.092
      9 O36        10.3140    8.1940    1.7210 O.2       1 SUB1       -0.550
     10 C28         9.2320    6.3030    2.6630 C.ar      1 SUB1        0.052
     11 C27         9.5340    5.5190    1.5570 C.ar      1 SUB1       -0.004
     12 C26         9.3320    4.1490    1.6150 C.ar      1 SUB1        0.002
     13 C29         8.7200    5.7090    3.8260 C.ar      1 SUB1       -0.004
     14 C30         8.5090    4.3210    3.8760 C.ar      1 SUB1        0.002
     15 C24         8.8220    3.5410    2.7580 C.ar      1 SUB1        0.084
     16 C20         8.6970    2.2620    2.6190 C.2       1 SUB1        0.175
     17 N19         8.6400    1.1550    2.1300 N.2       1 SUB1        0.020
     18 O16         8.4600   -0.0520    2.7110 O.3       1 SUB1       -0.131
     19 C13         8.0690   -1.1480    1.8750 C.3       1 SUB1        0.166
     20 C12         6.5520   -1.1190    1.6880 C.3       1 SUB1        0.138
     21 O11         6.1440   -1.7410    0.4640 O.3       1 SUB1       -0.217
     22 N10         6.2950   -1.0650   -0.6980 N.2       1 SUB1       -0.127
     23 C9          5.8720   -1.5810   -1.7650 C.2       1 SUB1        0.087
     24 O7          5.6610   -1.1590   -6.5300 O.2       1 SUB1       -0.413
     25 O8          7.2970    2.2300   -4.1210 O.2       1 SUB1       -0.383
     26 H           5.3194   -2.4454   -4.2860 H         1 SUB1        0.025
     27 H           6.8521    0.8133   -2.0985 H         1 SUB1        0.238
     28 H           6.6290    1.0629   -6.1735 H         1 SUB1        0.225
     29 H           9.9271    5.9779    0.6498 H         1 SUB1        0.078
     30 H           9.5775    3.5357    0.7480 H         1 SUB1        0.091
     31 H           8.4852    6.3260    4.6933 H         1 SUB1        0.078
     32 H           8.1058    3.8570    4.7761 H         1 SUB1        0.091
     33 H           8.5222    1.9953    3.6613 H         1 SUB1        0.145
     34 H           8.3627   -2.0881    2.3420 H         1 SUB1        0.078
     35 H           8.5594   -1.0624    0.9053 H         1 SUB1        0.078
     36 H           6.2342   -0.0767    1.6603 H         1 SUB1        0.070
     37 H           6.0986   -1.6673    2.5138 H         1 SUB1        0.070
     38 H           5.3729   -2.5500   -1.7545 H         1 SUB1        0.083
@<TRIPOS>BOND
     1    1    4 2  
     2    1    5 1  
     3   23    1 1  
     4    5    2 am 
     5    2    6 am 
     6    2   25 2  
     7    4    3 1  
     8    3    6 am 
     9    3   24 2  
    10    8    7 2  
    11    8    9 2  
    12   10    8 1  
    13   11   10 ar 
    14   13   10 ar 
    15   12   11 ar 
    16   15   12 ar 
    17   14   13 ar 
    18   15   14 ar 
    19   16   15 1  
    20   17   16 2  
    21   18   17 1  
    22   19   18 1  
    23   20   19 1  
    24   21   20 1  
    25   22   21 1  
    26   22   23 2  
    27    4   26 1  
    28    5   27 1  
    29    6   28 1  
    30   11   29 1  
    31   12   30 1  
    32   13   31 1  
    33   14   32 1  
    34   16   33 1  
    35   19   34 1  
    36   19   35 1  
    37   20   36 1  
    38   20   37 1  
    39   23   38 1  
@<TRIPOS>SUBSTRUCTURE
     1 SUB1        1 GROUP

