### 
### Created by X-TOOL on Tue Oct 25 01:26:04 2005
### 

@<TRIPOS>MOLECULE
1a99_ligand
   20    19     1     0     0
SMALL
GAST_HUCK


@<TRIPOS>ATOM
      1 N2        185.9370    8.2100   65.8030 N.4       1 SUB1        0.219
      2 C4        185.0470    7.2500   65.0860 C.3       1 SUB1       -0.035
      3 C3        184.0970    7.9880   64.1260 C.3       1 SUB1       -0.008
      4 C2        183.4900    7.0810   63.0700 C.3       1 SUB1       -0.008
      5 C1        182.5140    7.8100   62.1680 C.3       1 SUB1       -0.035
      6 N1        182.2700    7.0450   60.9210 N.4       1 SUB1        0.219
      7 H11       186.5478    7.7024   66.4238 H         1 SUB1        0.199
      8 H12       185.3752    8.8544   66.3370 H         1 SUB1        0.199
      9 H13       186.4891    8.7214   65.1324 H         1 SUB1        0.199
     10 H21       184.4509    6.6927   65.8237 H         1 SUB1        0.081
     11 H22       185.6665    6.5476   64.5091 H         1 SUB1        0.081
     12 H31       184.6614    8.7850   63.6197 H         1 SUB1        0.032
     13 H32       183.2816    8.4334   64.7148 H         1 SUB1        0.032
     14 H41       182.9587    6.2600   63.5736 H         1 SUB1        0.032
     15 H42       184.3007    6.6683   62.4515 H         1 SUB1        0.032
     16 H51       182.9295    8.7953   61.9101 H         1 SUB1        0.081
     17 H52       181.5610    7.9421   62.7013 H         1 SUB1        0.081
     18 H61       181.6193    7.5493   60.3393 H         1 SUB1        0.199
     19 H62       181.8854    6.1420   61.1506 H         1 SUB1        0.199
     20 H63       183.1394    6.9238   60.4255 H         1 SUB1        0.199
@<TRIPOS>BOND
     1    1    2 1  
     2    2    3 1  
     3    3    4 1  
     4    4    5 1  
     5    5    6 1  
     6    1    7 1  
     7    1    8 1  
     8    1    9 1  
     9    2   10 1  
    10    2   11 1  
    11    3   12 1  
    12    3   13 1  
    13    4   14 1  
    14    4   15 1  
    15    5   16 1  
    16    5   17 1  
    17    6   18 1  
    18    6   19 1  
    19    6   20 1  
@<TRIPOS>SUBSTRUCTURE
     1 SUB1        1 GROUP

