### 
### Created by X-TOOL on Tue Oct 25 01:59:06 2005
### 

@<TRIPOS>MOLECULE
1gz3_ligand
   43    45     1     0     0
SMALL
GAST_HUCK


@<TRIPOS>ATOM
      1 PG         26.1110   34.8470   -5.3390 P.3       1 SUB1        0.143
      2 O1G        26.8790   34.6070   -4.0430 O.co2     1 SUB1       -0.614
      3 O2G        25.4320   36.1570   -5.4110 O.co2     1 SUB1       -0.614
      4 O3G        25.1820   33.7240   -5.7210 O.co2     1 SUB1       -0.614
      5 PB         28.0810   33.7440   -7.1790 P.3       1 SUB1        0.354
      6 O1B        28.2550   34.0690   -8.5810 O.co2     1 SUB1       -0.497
      7 O2B        27.4420   32.4650   -6.8490 O.co2     1 SUB1       -0.497
      8 O3B        27.2330   34.8800   -6.5180 O.3       1 SUB1       -0.297
      9 PA         31.0500   33.8220   -6.9310 P.3       1 SUB1        0.350
     10 O1A        31.9250   34.1590   -5.7760 O.co2     1 SUB1       -0.488
     11 O2A        31.3010   32.5800   -7.6740 O.co2     1 SUB1       -0.488
     12 O3A        29.5080   33.8300   -6.4350 O.3       1 SUB1       -0.186
     13 O5         31.0990   35.0360   -7.9960 O.3       1 SUB1       -0.280
     14 C5         30.9100   36.4060   -7.5880 C.3       1 SUB1        0.102
     15 C4         31.1420   37.3300   -8.8010 C.3       1 SUB1        0.118
     16 O4         30.7500   38.7170   -8.4720 O.3       1 SUB1       -0.336
     17 C3         32.6110   37.3720   -9.1830 C.3       1 SUB1        0.115
     18 O3         32.7660   37.2060  -10.6110 O.3       1 SUB1       -0.386
     19 C2         33.0930   38.7370   -8.7780 C.3       1 SUB1        0.139
     20 O2         34.1210   39.2050   -9.6660 O.3       1 SUB1       -0.384
     21 C1         31.8610   39.5890   -8.8430 C.3       1 SUB1        0.201
     22 N9         31.9460   40.7980   -8.0050 N.pl3     1 SUB1       -0.192
     23 C8         32.2880   40.8880   -6.6650 C.2       1 SUB1        0.112
     24 N7         32.2710   42.1920   -6.3040 N.2       1 SUB1       -0.296
     25 C5         31.9230   42.8280   -7.4010 C.ar      1 SUB1        0.105
     26 C6         31.7970   44.2060   -7.4530 C.ar      1 SUB1        0.130
     27 N6         32.0330   44.9740   -6.3940 N.pl3     1 SUB1       -0.315
     28 N1         31.4210   44.7440   -8.6520 N.ar      1 SUB1       -0.270
     29 C2         31.2050   43.9310   -9.7430 C.ar      1 SUB1        0.053
     30 N3         31.3510   42.5700   -9.6410 N.ar      1 SUB1       -0.271
     31 C4         31.7290   42.0210   -8.4470 C.ar      1 SUB1        0.161
     32 H141       31.6272   36.6557   -6.7922 H         1 SUB1        0.064
     33 H142       29.8847   36.5407   -7.2131 H         1 SUB1        0.064
     34 H151       30.5470   36.9636   -9.6505 H         1 SUB1        0.065
     35 H171       33.1714   36.5874   -8.6537 H         1 SUB1        0.065
     36 H181       33.6891   37.2345  -10.8336 H         1 SUB1        0.210
     37 H191       33.4897   38.7173   -7.7522 H         1 SUB1        0.068
     38 H201       33.7765   39.2530  -10.5501 H         1 SUB1        0.210
     39 H211       31.7173   39.9208   -9.8819 H         1 SUB1        0.100
     40 H231       32.5297   40.0503   -6.0125 H         1 SUB1        0.135
     41 H271       31.9301   45.9963   -6.4660 H         1 SUB1        0.182
     42 H272       32.3188   44.5468   -5.5014 H         1 SUB1        0.182
     43 H291       30.9170   44.3704  -10.6912 H         1 SUB1        0.100
@<TRIPOS>BOND
     1    1    2 2  
     2    1    3 2  
     3    1    4 2  
     4    8    1 1  
     5    5    6 2  
     6    5    7 2  
     7    5    8 1  
     8   12    5 1  
     9    9   10 2  
    10    9   11 2  
    11    9   12 1  
    12    9   13 1  
    13   13   14 1  
    14   14   15 1  
    15   15   16 1  
    16   15   17 1  
    17   16   21 1  
    18   17   18 1  
    19   17   19 1  
    20   19   20 1  
    21   19   21 1  
    22   21   22 1  
    23   22   23 1  
    24   22   31 1  
    25   23   24 2  
    26   24   25 1  
    27   25   26 ar 
    28   25   31 ar 
    29   26   27 1  
    30   26   28 ar 
    31   28   29 ar 
    32   29   30 ar 
    33   30   31 ar 
    34   14   32 1  
    35   14   33 1  
    36   15   34 1  
    37   17   35 1  
    38   18   36 1  
    39   19   37 1  
    40   20   38 1  
    41   21   39 1  
    42   23   40 1  
    43   27   41 1  
    44   27   42 1  
    45   29   43 1  
@<TRIPOS>SUBSTRUCTURE
     1 SUB1        1 GROUP

