1gz3_ligand
  -I-interpret- 

 43 45  0  0  0  0  0  0  0  0999 V2000
   26.1110   34.8470   -5.3390 P   0  0  0  0  0
   26.8790   34.6070   -4.0430 O   0  5  0  0  0
   25.4320   36.1570   -5.4110 O   0  0  0  0  0
   25.1820   33.7240   -5.7210 O   0  5  0  0  0
   28.0810   33.7440   -7.1790 P   0  0  0  0  0
   28.2550   34.0690   -8.5810 O   0  0  0  0  0
   27.4420   32.4650   -6.8490 O   0  5  0  0  0
   27.2330   34.8800   -6.5180 O   0  0  0  0  0
   31.0500   33.8220   -6.9310 P   0  0  0  0  0
   31.9250   34.1590   -5.7760 O   0  5  0  0  0
   31.3010   32.5800   -7.6740 O   0  0  0  0  0
   29.5080   33.8300   -6.4350 O   0  0  0  0  0
   31.0990   35.0360   -7.9960 O   0  0  0  0  0
   30.9100   36.4060   -7.5880 C   0  0  0  0  0
   31.1420   37.3300   -8.8010 C   0  0  0  0  0
   30.7500   38.7170   -8.4720 O   0  0  0  0  0
   32.6110   37.3720   -9.1830 C   0  0  0  0  0
   32.7660   37.2060  -10.6110 O   0  0  0  0  0
   33.0930   38.7370   -8.7780 C   0  0  0  0  0
   34.1210   39.2050   -9.6660 O   0  0  0  0  0
   31.8610   39.5890   -8.8430 C   0  0  0  0  0
   31.9460   40.7980   -8.0050 N   0  0  0  0  0
   32.2880   40.8880   -6.6650 C   0  0  0  0  0
   32.2710   42.1920   -6.3040 N   0  0  0  0  0
   31.9230   42.8280   -7.4010 C   0  0  0  0  0
   31.7970   44.2060   -7.4530 C   0  0  0  0  0
   32.0330   44.9740   -6.3940 N   0  0  0  0  0
   31.4210   44.7440   -8.6520 N   0  0  0  0  0
   31.2050   43.9310   -9.7430 C   0  0  0  0  0
   31.3510   42.5700   -9.6410 N   0  0  0  0  0
   31.7290   42.0210   -8.4470 C   0  0  0  0  0
   31.6272   36.6557   -6.7922 H   0  0  0  0  0
   29.8847   36.5407   -7.2131 H   0  0  0  0  0
   30.5470   36.9636   -9.6505 H   0  0  0  0  0
   33.1714   36.5874   -8.6537 H   0  0  0  0  0
   33.6891   37.2345  -10.8336 H   0  0  0  0  0
   33.4897   38.7173   -7.7522 H   0  0  0  0  0
   33.7765   39.2530  -10.5501 H   0  0  0  0  0
   31.7173   39.9208   -9.8819 H   0  0  0  0  0
   32.5297   40.0503   -6.0125 H   0  0  0  0  0
   31.9301   45.9963   -6.4660 H   0  0  0  0  0
   32.3188   44.5468   -5.5014 H   0  0  0  0  0
   30.9170   44.3704  -10.6912 H   0  0  0  0  0
  1  2  1  0  0  0
  1  3  2  0  0  0
  1  4  1  0  0  0
  8  1  1  0  0  0
  5  6  2  0  0  0
  5  7  1  0  0  0
  5  8  1  0  0  0
 12  5  1  0  0  0
  9 10  1  0  0  0
  9 11  2  0  0  0
  9 12  1  0  0  0
  9 13  1  0  0  0
 13 14  1  0  0  0
 14 15  1  0  0  0
 15 16  1  0  0  0
 15 17  1  0  0  0
 16 21  1  0  0  0
 17 18  1  0  0  0
 17 19  1  0  0  0
 19 20  1  0  0  0
 19 21  1  0  0  0
 21 22  1  0  0  0
 22 23  1  0  0  0
 22 31  1  0  0  0
 23 24  2  0  0  0
 24 25  1  0  0  0
 25 26  4  0  0  0
 25 31  4  0  0  0
 26 27  1  0  0  0
 26 28  4  0  0  0
 28 29  4  0  0  0
 29 30  4  0  0  0
 30 31  4  0  0  0
 14 32  1  0  0  0
 14 33  1  0  0  0
 15 34  1  0  0  0
 17 35  1  0  0  0
 18 36  1  0  0  0
 19 37  1  0  0  0
 20 38  1  0  0  0
 21 39  1  0  0  0
 23 40  1  0  0  0
 27 41  1  0  0  0
 27 42  1  0  0  0
 29 43  1  0  0  0
M  END
$$$$
