### 
### Created by X-TOOL on Mon Oct 24 21:55:05 2005
### 

@<TRIPOS>MOLECULE
1obx_ligand
   62    62     1     0     0
SMALL
GAST_HUCK


@<TRIPOS>ATOM
      1 N          28.8690   15.6980    8.9230 N.4       1 SUB1        0.240
      2 CA         27.3970   15.8440    8.8640 C.3       1 SUB1        0.076
      3 C          26.8510   15.5960   10.2500 C.2       1 SUB1        0.230
      4 O          27.4180   15.0050   11.1350 O.2       1 SUB1       -0.390
      5 CB         26.8010   14.8030    7.9380 C.3       1 SUB1        0.047
      6 CG         27.1330   15.0100    6.4830 C.2       1 SUB1        0.036
      7 OD1        28.2670   15.4310    6.0770 O.co2     1 SUB1       -0.566
      8 OD2        26.2710   14.6850    5.6570 O.co2     1 SUB1       -0.566
      9 N          25.6240   16.0290   10.4350 N.am      1 SUB1       -0.259
     10 CA         24.9590   15.9060   11.7140 C.3       1 SUB1        0.154
     11 C          24.3290   14.4960   11.8580 C.2       1 SUB1        0.206
     12 O          23.7640   13.8850   10.9460 O.2       1 SUB1       -0.394
     13 CB         23.9300   17.0440   11.8530 C.3       1 SUB1        0.084
     14 OG         24.5510   18.3430   11.8830 O.3       1 SUB1       -0.390
     15 N          24.4410   13.9960   13.0750 N.am      1 SUB1       -0.263
     16 CA         23.7400   12.7760   13.4770 C.3       1 SUB1        0.133
     17 C          22.5680   13.2180   14.3340 C.2       1 SUB1        0.205
     18 O          22.6790   14.1300   15.1240 O.2       1 SUB1       -0.394
     19 CB         24.6550   11.7390   14.2070 C.3       1 SUB1       -0.006
     20 CG1        25.3530   12.2850   15.3940 C.3       1 SUB1       -0.058
     21 CG2        23.8600   10.5360   14.6390 C.3       1 SUB1       -0.058
     22 N          21.4940   12.4640   14.1980 N.am      1 SUB1       -0.266
     23 CA         20.2480   12.6800   14.9570 C.3       1 SUB1        0.091
     24 C          19.7760   11.4140   15.6120 C.2       1 SUB1        0.055
     25 O          20.2690   10.3470   15.2140 O.co2     1 SUB1       -0.564
     26 CB         19.1570   13.2200   14.0410 C.3       1 SUB1        0.015
     27 CG         19.5160   14.5470   13.4940 C.ar      1 SUB1       -0.038
     28 CD1        20.1660   14.6630   12.2900 C.ar      1 SUB1       -0.060
     29 CD2        19.2960   15.6870   14.2380 C.ar      1 SUB1       -0.060
     30 CE1        20.5620   15.9010   11.8490 C.ar      1 SUB1       -0.069
     31 CE2        19.7240   16.8750   13.7970 C.ar      1 SUB1       -0.069
     32 CZ         20.3580   16.9750   12.5880 C.ar      1 SUB1       -0.069
     33 OXT        18.9510   11.5250   16.5010 O.co2     1 SUB1       -0.564
     34 H11        29.1568   15.4957    9.8676 H         1 SUB1        0.202
     35 H21        27.1243   16.8562    8.5309 H         1 SUB1        0.114
     36 H51        27.1812   13.8131    8.2302 H         1 SUB1        0.057
     37 H52        25.7075   14.8123    8.0568 H         1 SUB1        0.057
     38 H91        25.1374   16.4545    9.6720 H         1 SUB1        0.189
     39 H101       25.7039   16.0101   12.5167 H         1 SUB1        0.082
     40 H131       23.2410   17.0131   10.9961 H         1 SUB1        0.061
     41 H132       23.3530   16.8961   12.7777 H         1 SUB1        0.061
     42 H141       23.8811   19.0111   11.9693 H         1 SUB1        0.210
     43 H12        29.3016   16.5720    8.6240 H         1 SUB1        0.202
     44 H151       25.0215   14.4645   13.7410 H         1 SUB1        0.188
     45 H161       23.3362   12.2879   12.5778 H         1 SUB1        0.080
     46 H191       25.4297   11.4164   13.4959 H         1 SUB1        0.034
     47 H201       25.9735   11.4937   15.8400 H         1 SUB1        0.023
     48 H202       26.0006   13.1227   15.0960 H         1 SUB1        0.023
     49 H203       24.6180   12.6483   16.1273 H         1 SUB1        0.023
     50 H211       24.5295    9.8295   15.1515 H         1 SUB1        0.023
     51 H212       23.0634   10.8423   15.3330 H         1 SUB1        0.023
     52 H213       23.4013   10.0550   13.7626 H         1 SUB1        0.023
     53 H221       21.5264   11.7063   13.5462 H         1 SUB1        0.190
     54 H231       20.4437   13.4141   15.7524 H         1 SUB1        0.080
     55 H261       19.0114   12.5261   13.2000 H         1 SUB1        0.049
     56 H262       18.2152   13.2977   14.6039 H         1 SUB1        0.049
     57 H281       20.3653   13.7817   11.6911 H         1 SUB1        0.056
     58 H291       18.7734   15.6200   15.1853 H         1 SUB1        0.056
     59 H301       21.0470   15.9974   10.8843 H         1 SUB1        0.060
     60 H311       19.5681   17.7625   14.3996 H         1 SUB1        0.060
     61 H321       20.6948   17.9431   12.2352 H         1 SUB1        0.056
     62 H13        29.1638   14.9424    8.3245 H         1 SUB1        0.202
@<TRIPOS>BOND
     1    2    1 1  
     2    2    5 1  
     3    3    2 1  
     4    3    4 2  
     5    5    6 1  
     6    6    7 2  
     7    6    8 2  
     8   10    9 1  
     9   10   13 1  
    10   11   10 1  
    11   11   12 2  
    12   13   14 1  
    13    9    3 am 
    14   16   15 1  
    15   16   19 1  
    16   17   16 1  
    17   17   18 2  
    18   19   21 1  
    19   19   20 1  
    20   15   11 am 
    21   22   23 1  
    22   23   26 1  
    23   23   24 1  
    24   24   25 2  
    25   24   33 2  
    26   26   27 1  
    27   27   28 ar 
    28   27   29 ar 
    29   29   31 ar 
    30   31   32 ar 
    31   30   32 ar 
    32   28   30 ar 
    33   17   22 am 
    34    1   43 1  
    35    1   34 1  
    36    2   35 1  
    37    5   36 1  
    38    5   37 1  
    39    9   38 1  
    40   10   39 1  
    41   13   40 1  
    42   13   41 1  
    43   14   42 1  
    44   15   44 1  
    45   16   45 1  
    46   19   46 1  
    47   20   47 1  
    48   20   48 1  
    49   20   49 1  
    50   21   50 1  
    51   21   51 1  
    52   21   52 1  
    53   22   53 1  
    54   23   54 1  
    55   26   55 1  
    56   26   56 1  
    57   28   57 1  
    58   29   58 1  
    59   30   59 1  
    60   31   60 1  
    61   32   61 1  
    62    1   62 1  
@<TRIPOS>SUBSTRUCTURE
     1 SUB1        1 GROUP

