### 
### Created by X-TOOL on Mon Oct 24 22:39:18 2005
### 

@<TRIPOS>MOLECULE
1tnh_ligand
   18    18     1     0     0
SMALL
GAST_HUCK


@<TRIPOS>ATOM
      1 H81        29.8012   13.0888   15.7651 H         1 SUB1        0.055
      2 H91        29.7569   11.8929   17.9275 H         1 SUB1        0.059
      3 H111       28.4130   15.4819   19.8562 H         1 SUB1        0.059
      4 H121       28.5021   16.6546   17.6882 H         1 SUB1        0.055
      5 H131       29.0203   16.7756   15.5019 H         1 SUB1        0.097
      6 H132       28.3538   15.3370   14.6577 H         1 SUB1        0.097
      7 C1         29.1540   14.9450   16.6050 C.ar      1 SUB1       -0.003
      8 C2         29.5030   13.6110   16.6670 C.ar      1 SUB1       -0.057
      9 C3         29.4740   12.9380   17.8740 C.ar      1 SUB1       -0.035
     10 C4         29.0770   13.6200   19.0180 C.ar      1 SUB1        0.125
     11 C5         28.7230   14.9550   18.9610 C.ar      1 SUB1       -0.035
     12 C6         28.7710   15.6060   17.7440 C.ar      1 SUB1       -0.057
     13 C          29.1690   15.7050   15.2980 C.3       1 SUB1       -0.003
     14 N          30.4080   15.5270   14.6230 N.4       1 SUB1        0.230
     15 F          29.0060   12.9520   20.2340 F         1 SUB1       -0.189
     16 H141       30.6120   14.5240   14.4070 H         1 SUB1        0.201
     17 H142       31.1880   15.9860   15.1430 H         1 SUB1        0.201
     18 H143       30.3160   15.9870   13.6900 H         1 SUB1        0.201
@<TRIPOS>BOND
     1    8    1 1  
     2    9    2 1  
     3   11    3 1  
     4   12    4 1  
     5   13    5 1  
     6   13    6 1  
     7    8    7 ar 
     8    7   12 ar 
     9    7   13 1  
    10    9    8 ar 
    11   10    9 ar 
    12   10   11 ar 
    13   10   15 1  
    14   11   12 ar 
    15   13   14 1  
    16   14   16 1  
    17   14   17 1  
    18   14   18 1  
@<TRIPOS>SUBSTRUCTURE
     1 SUB1        1 GROUP

