1tnh_ligand
  -I-interpret- 

 18 18  0  0  0  0  0  0  0  0999 V2000
   29.8012   13.0888   15.7651 H   0  0  0  0  0
   29.7569   11.8929   17.9275 H   0  0  0  0  0
   28.4130   15.4819   19.8562 H   0  0  0  0  0
   28.5021   16.6546   17.6882 H   0  0  0  0  0
   29.0203   16.7756   15.5019 H   0  0  0  0  0
   28.3538   15.3370   14.6577 H   0  0  0  0  0
   29.1540   14.9450   16.6050 C   0  0  0  0  0
   29.5030   13.6110   16.6670 C   0  0  0  0  0
   29.4740   12.9380   17.8740 C   0  0  0  0  0
   29.0770   13.6200   19.0180 C   0  0  0  0  0
   28.7230   14.9550   18.9610 C   0  0  0  0  0
   28.7710   15.6060   17.7440 C   0  0  0  0  0
   29.1690   15.7050   15.2980 C   0  0  0  0  0
   30.4080   15.5270   14.6230 N   0  3  0  0  0
   29.0060   12.9520   20.2340 F   0  0  0  0  0
   30.6120   14.5240   14.4070 H   0  0  0  0  0
   31.1880   15.9860   15.1430 H   0  0  0  0  0
   30.3160   15.9870   13.6900 H   0  0  0  0  0
  8  1  1  0  0  0
  9  2  1  0  0  0
 11  3  1  0  0  0
 12  4  1  0  0  0
 13  5  1  0  0  0
 13  6  1  0  0  0
  8  7  4  0  0  0
  7 12  4  0  0  0
  7 13  1  0  0  0
  9  8  4  0  0  0
 10  9  4  0  0  0
 10 11  4  0  0  0
 10 15  1  0  0  0
 11 12  4  0  0  0
 13 14  1  0  0  0
 14 16  1  0  0  0
 14 17  1  0  0  0
 14 18  1  0  0  0
M  END
$$$$
