2byr_ligand
  -I-interpret- 

 99106  0  0  0  0  0  0  0  0999 V2000
    1.5840   -0.6630  -13.7100 O   0  0  0  0  0
    0.7370   -1.4040  -13.2060 C   0  0  0  0  0
   -0.6400   -0.9300  -12.7930 C   0  0  0  0  0
   -1.2670   -2.1550  -12.1550 C   0  0  0  0  0
   -1.5590   -1.9620  -10.6730 C   0  0  0  0  0
   -0.2420   -3.2260  -12.3790 C   0  0  0  0  0
   -0.4140   -4.3850  -12.0290 O   0  0  0  0  0
    0.8570   -2.7130  -12.9310 N   0  0  0  0  0
    1.8590   -3.5330  -13.4650 C   0  0  0  0  0
    1.6090   -4.3790  -14.5430 C   0  0  0  0  0
    2.6230   -5.1890  -15.0590 C   0  0  0  0  0
    3.9060   -5.1730  -14.5040 C   0  0  0  0  0
    4.2030   -4.3400  -13.4160 C   0  0  0  0  0
    3.2140   -3.5150  -12.8720 C   0  0  0  0  0
    3.5180   -2.6160  -11.7180 C   0  0  0  0  0
    2.6420   -2.1510  -11.0110 O   0  0  0  0  0
    4.8980   -2.2900  -11.4480 O   0  0  0  0  0
    5.2610   -1.3970  -10.4120 C   0  0  0  0  0
    6.7590   -1.1620  -10.5160 C   0  0  0  0  0
    7.4080   -2.5490  -10.3590 C   0  0  0  0  0
    8.2990   -2.8860  -11.5330 C   0  0  0  0  0
    9.3140   -1.7620  -11.7750 C   0  0  0  0  0
   10.2520   -1.6750  -10.7080 O   0  0  0  0  0
   11.1090   -2.8000  -10.5380 C   0  0  0  0  0
    8.6330   -0.3930  -12.0050 C   0  0  0  0  0
    7.1110   -0.4720  -11.8490 C   0  0  0  0  0
    8.8590    0.7140  -10.9780 C   0  0  0  0  0
    8.6310    0.2010   -9.5920 N   0  0  0  0  0
    8.9990    1.1820   -8.5410 C   0  0  0  0  0
   10.5030    1.3300   -8.3990 C   0  0  0  0  0
    7.2500   -0.2820   -9.3590 C   0  0  0  0  0
    9.1290    0.1090  -13.3880 C   0  0  0  0  0
   10.6630    0.2380  -13.4670 C   0  0  0  0  0
   10.9540    1.6530  -13.9540 C   0  0  0  0  0
   11.0500    2.6480  -12.8030 C   0  0  0  0  0
   11.9670    3.7050  -13.1060 O   0  0  0  0  0
   13.3480    3.3480  -12.9130 C   0  0  0  0  0
    9.7040    3.2830  -12.4110 C   0  0  0  0  0
    8.6480    1.4790  -13.8880 C   0  0  0  0  0
    9.7620    1.9270  -14.8300 C   0  0  0  0  0
    9.7240    3.2820  -15.2950 O   0  0  0  0  0
    8.6740    3.4930  -16.2410 C   0  0  0  0  0
    8.4300    2.4780  -12.7400 C   0  0  0  0  0
    7.4410    3.4120  -13.1300 O   0  0  0  0  0
    7.8750    1.7800  -11.4960 C   0  0  0  0  0
    7.5510    2.8070  -10.5520 O   0  0  0  0  0
    6.6240    0.9730  -11.8330 C   0  0  0  0  0
    6.0390    1.3400  -13.0720 O   0  0  0  0  0
    4.6950    0.8990  -13.2120 C   0  0  0  0  0
   -1.2213   -0.5574  -13.6364 H   0  0  0  0  0
   -0.5997   -0.0810  -12.1106 H   0  0  0  0  0
   -2.2390   -2.3912  -12.5879 H   0  0  0  0  0
   -1.9368   -2.8946  -10.2540 H   0  0  0  0  0
   -0.6422   -1.6757  -10.1576 H   0  0  0  0  0
   -2.3063   -1.1780  -10.5503 H   0  0  0  0  0
    0.6141   -4.4091  -14.9873 H   0  0  0  0  0
    2.4113   -5.8422  -15.9055 H   0  0  0  0  0
    4.6827   -5.8141  -14.9210 H   0  0  0  0  0
    5.2076   -4.3356  -12.9932 H   0  0  0  0  0
    5.0077   -1.8184   -9.4392 H   0  0  0  0  0
    4.7196   -0.4563  -10.5123 H   0  0  0  0  0
    6.6150   -3.2949  -10.3046 H   0  0  0  0  0
    8.0181   -2.5423   -9.4558 H   0  0  0  0  0
    7.6822   -3.0048  -12.4238 H   0  0  0  0  0
    8.8368   -3.8090  -11.3166 H   0  0  0  0  0
    9.8483   -2.0195  -12.6895 H   0  0  0  0  0
   10.5071   -3.6873  -10.3417 H   0  0  0  0  0
   11.6941   -2.9498  -11.4453 H   0  0  0  0  0
   11.7793   -2.6208   -9.6973 H   0  0  0  0  0
    6.6479   -1.0450  -12.6523 H   0  0  0  0  0
    9.8676    1.1178  -10.8899 H   0  0  0  0  0
    8.6012    0.8269   -7.5904 H   0  0  0  0  0
    8.5871    2.1514   -8.8217 H   0  0  0  0  0
   10.9380    0.3668   -8.1323 H   0  0  0  0  0
   10.9242    1.6710   -9.3448 H   0  0  0  0  0
   10.7230    2.0581   -7.6183 H   0  0  0  0  0
    7.2418   -0.8767   -8.4455 H   0  0  0  0  0
    6.5909    0.5825   -9.2791 H   0  0  0  0  0
    8.6930   -0.6758  -14.0061 H   0  0  0  0  0
   11.0824   -0.5029  -14.1477 H   0  0  0  0  0
   11.1203    0.0584  -12.4940 H   0  0  0  0  0
   11.9113    1.7501  -14.4660 H   0  0  0  0  0
   11.4026    2.0567  -11.9580 H   0  0  0  0  0
   13.5076    3.0685  -11.8716 H   0  0  0  0  0
   13.5981    2.5063  -13.5589 H   0  0  0  0  0
   13.9805    4.1998  -13.1629 H   0  0  0  0  0
    9.6307    4.2058  -12.9865 H   0  0  0  0  0
    9.7243    3.3788  -11.3254 H   0  0  0  0  0
    7.6762    1.4237  -14.3786 H   0  0  0  0  0
    9.7227    1.4117  -15.7897 H   0  0  0  0  0
    8.8253    2.8410  -17.1013 H   0  0  0  0  0
    7.7155    3.2650  -15.7748 H   0  0  0  0  0
    8.6831    4.5334  -16.5660 H   0  0  0  0  0
    6.6217    2.9487  -13.3188 H   0  0  0  0  0
    6.8952    3.3953  -10.9334 H   0  0  0  0  0
    5.8294    1.1481  -11.1077 H   0  0  0  0  0
    4.6615   -0.1882  -13.1418 H   0  0  0  0  0
    4.0866    1.3345  -12.4193 H   0  0  0  0  0
    4.3098    1.2138  -14.1819 H   0  0  0  0  0
  1  2  2  0  0  0
  2  3  1  0  0  0
  2  8  1  0  0  0
  3  4  1  0  0  0
  4  5  1  0  0  0
  4  6  1  0  0  0
  6  7  2  0  0  0
  6  8  1  0  0  0
  8  9  1  0  0  0
  9 10  4  0  0  0
  9 14  4  0  0  0
 10 11  4  0  0  0
 11 12  4  0  0  0
 12 13  4  0  0  0
 13 14  4  0  0  0
 14 15  1  0  0  0
 15 16  2  0  0  0
 15 17  1  0  0  0
 17 18  1  0  0  0
 18 19  1  0  0  0
 19 20  1  0  0  0
 19 26  1  0  0  0
 19 31  1  0  0  0
 20 21  1  0  0  0
 21 22  1  0  0  0
 22 23  1  0  0  0
 22 25  1  0  0  0
 23 24  1  0  0  0
 25 26  1  0  0  0
 25 27  1  0  0  0
 25 32  1  0  0  0
 26 47  1  0  0  0
 27 28  1  0  0  0
 27 45  1  0  0  0
 28 29  1  0  0  0
 28 31  1  0  0  0
 29 30  1  0  0  0
 32 33  1  0  0  0
 32 39  1  0  0  0
 33 34  1  0  0  0
 34 35  1  0  0  0
 34 40  1  0  0  0
 35 36  1  0  0  0
 35 38  1  0  0  0
 36 37  1  0  0  0
 38 43  1  0  0  0
 39 40  1  0  0  0
 39 43  1  0  0  0
 40 41  1  0  0  0
 41 42  1  0  0  0
 43 44  1  0  0  0
 43 45  1  0  0  0
 45 46  1  0  0  0
 45 47  1  0  0  0
 47 48  1  0  0  0
 48 49  1  0  0  0
  3 50  1  0  0  0
  3 51  1  0  0  0
  4 52  1  0  0  0
  5 53  1  0  0  0
  5 54  1  0  0  0
  5 55  1  0  0  0
 10 56  1  0  0  0
 11 57  1  0  0  0
 12 58  1  0  0  0
 13 59  1  0  0  0
 18 60  1  0  0  0
 18 61  1  0  0  0
 20 62  1  0  0  0
 20 63  1  0  0  0
 21 64  1  0  0  0
 21 65  1  0  0  0
 22 66  1  0  0  0
 24 67  1  0  0  0
 24 68  1  0  0  0
 24 69  1  0  0  0
 26 70  1  0  0  0
 27 71  1  0  0  0
 29 72  1  0  0  0
 29 73  1  0  0  0
 30 74  1  0  0  0
 30 75  1  0  0  0
 30 76  1  0  0  0
 31 77  1  0  0  0
 31 78  1  0  0  0
 32 79  1  0  0  0
 33 80  1  0  0  0
 33 81  1  0  0  0
 34 82  1  0  0  0
 35 83  1  0  0  0
 37 84  1  0  0  0
 37 85  1  0  0  0
 37 86  1  0  0  0
 38 87  1  0  0  0
 38 88  1  0  0  0
 39 89  1  0  0  0
 40 90  1  0  0  0
 42 91  1  0  0  0
 42 92  1  0  0  0
 42 93  1  0  0  0
 44 94  1  0  0  0
 46 95  1  0  0  0
 47 96  1  0  0  0
 49 97  1  0  0  0
 49 98  1  0  0  0
 49 99  1  0  0  0
M  END
$$$$
