### 
### Created by X-TOOL on Sun Jun  3 11:55:14 2007
### 

@<TRIPOS>MOLECULE
2byr_ligand
   99   106     1     0     0
SMALL
GAST_HUCK


@<TRIPOS>ATOM
      1 O8          1.5840   -0.6630  -13.7100 O.2       1 SUB1       -0.374
      2 C8          0.7370   -1.4040  -13.2060 C.2       1 SUB1        0.236
      3 C9         -0.6400   -0.9300  -12.7930 C.3       1 SUB1        0.069
      4 C10        -1.2670   -2.1550  -12.1550 C.3       1 SUB1        0.074
      5 C12        -1.5590   -1.9620  -10.6730 C.3       1 SUB1       -0.042
      6 C11        -0.2420   -3.2260  -12.3790 C.2       1 SUB1        0.238
      7 O11        -0.4140   -4.3850  -12.0290 O.2       1 SUB1       -0.374
      8 N7          0.8570   -2.7130  -12.9310 N.am      1 SUB1       -0.128
      9 C6          1.8590   -3.5330  -13.4650 C.ar      1 SUB1        0.118
     10 C5          1.6090   -4.3790  -14.5430 C.ar      1 SUB1       -0.029
     11 C4          2.6230   -5.1890  -15.0590 C.ar      1 SUB1       -0.069
     12 C3          3.9060   -5.1730  -14.5040 C.ar      1 SUB1       -0.069
     13 C2          4.2030   -4.3400  -13.4160 C.ar      1 SUB1       -0.052
     14 C1          3.2140   -3.5150  -12.8720 C.ar      1 SUB1        0.087
     15 C13         3.5180   -2.6160  -11.7180 C.2       1 SUB1        0.255
     16 O13         2.6420   -2.1510  -11.0110 O.2       1 SUB1       -0.365
     17 O14         4.8980   -2.2900  -11.4480 O.3       1 SUB1       -0.279
     18 C15         5.2610   -1.3970  -10.4120 C.3       1 SUB1        0.083
     19 C16         6.7590   -1.1620  -10.5160 C.3       1 SUB1        0.017
     20 C21         7.4080   -2.5490  -10.3590 C.3       1 SUB1       -0.041
     21 C20         8.2990   -2.8860  -11.5330 C.3       1 SUB1       -0.025
     22 C19         9.3140   -1.7620  -11.7750 C.3       1 SUB1        0.066
     23 O19        10.2520   -1.6750  -10.7080 O.3       1 SUB1       -0.379
     24 C22        11.1090   -2.8000  -10.5380 C.3       1 SUB1        0.037
     25 C18         8.6330   -0.3930  -12.0050 C.3       1 SUB1        0.024
     26 C17         7.1110   -0.4720  -11.8490 C.3       1 SUB1        0.007
     27 C26         8.8590    0.7140  -10.9780 C.3       1 SUB1        0.053
     28 N23         8.6310    0.2010   -9.5920 N.3       1 SUB1       -0.296
     29 C24         8.9990    1.1820   -8.5410 C.3       1 SUB1       -0.004
     30 C25        10.5030    1.3300   -8.3990 C.3       1 SUB1       -0.052
     31 C23         7.2500   -0.2820   -9.3590 C.3       1 SUB1        0.008
     32 C30         9.1290    0.1090  -13.3880 C.3       1 SUB1       -0.023
     33 C33        10.6630    0.2380  -13.4670 C.3       1 SUB1       -0.042
     34 C34        10.9540    1.6530  -13.9540 C.3       1 SUB1        0.012
     35 C35        11.0500    2.6480  -12.8030 C.3       1 SUB1        0.066
     36 O35        11.9670    3.7050  -13.1060 O.3       1 SUB1       -0.379
     37 C37        13.3480    3.3480  -12.9130 C.3       1 SUB1        0.037
     38 C36         9.7040    3.2830  -12.4110 C.3       1 SUB1        0.006
     39 C31         8.6480    1.4790  -13.8880 C.3       1 SUB1        0.021
     40 C38         9.7620    1.9270  -14.8300 C.3       1 SUB1        0.069
     41 O38         9.7240    3.2820  -15.2950 O.3       1 SUB1       -0.379
     42 C39         8.6740    3.4930  -16.2410 C.3       1 SUB1        0.037
     43 C32         8.4300    2.4780  -12.7400 C.3       1 SUB1        0.106
     44 O32         7.4410    3.4120  -13.1300 O.3       1 SUB1       -0.385
     45 C27         7.8750    1.7800  -11.4960 C.3       1 SUB1        0.137
     46 O27         7.5510    2.8070  -10.5520 O.3       1 SUB1       -0.382
     47 C28         6.6240    0.9730  -11.8330 C.3       1 SUB1        0.095
     48 O28         6.0390    1.3400  -13.0720 O.3       1 SUB1       -0.377
     49 C29         4.6950    0.8990  -13.2120 C.3       1 SUB1        0.037
     50 H          -1.2213   -0.5574  -13.6364 H         1 SUB1        0.054
     51 H          -0.5997   -0.0810  -12.1106 H         1 SUB1        0.054
     52 H          -2.2390   -2.3912  -12.5879 H         1 SUB1        0.057
     53 H          -1.9368   -2.8946  -10.2540 H         1 SUB1        0.026
     54 H          -0.6422   -1.6757  -10.1576 H         1 SUB1        0.026
     55 H          -2.3063   -1.1780  -10.5503 H         1 SUB1        0.026
     56 H           0.6141   -4.4091  -14.9873 H         1 SUB1        0.053
     57 H           2.4113   -5.8422  -15.9055 H         1 SUB1        0.062
     58 H           4.6827   -5.8141  -14.9210 H         1 SUB1        0.052
     59 H           5.2076   -4.3356  -12.9932 H         1 SUB1        0.064
     60 H           5.0077   -1.8184   -9.4392 H         1 SUB1        0.062
     61 H           4.7196   -0.4563  -10.5123 H         1 SUB1        0.062
     62 H           6.6150   -3.2949  -10.3046 H         1 SUB1        0.027
     63 H           8.0181   -2.5423   -9.4558 H         1 SUB1        0.027
     64 H           7.6822   -3.0048  -12.4238 H         1 SUB1        0.029
     65 H           8.8368   -3.8090  -11.3166 H         1 SUB1        0.029
     66 H           9.8483   -2.0195  -12.6895 H         1 SUB1        0.060
     67 H          10.5071   -3.6873  -10.3417 H         1 SUB1        0.052
     68 H          11.6941   -2.9498  -11.4453 H         1 SUB1        0.052
     69 H          11.7793   -2.6208   -9.6973 H         1 SUB1        0.052
     70 H           6.6479   -1.0450  -12.6523 H         1 SUB1        0.034
     71 H           9.8676    1.1178  -10.8899 H         1 SUB1        0.050
     72 H           8.6012    0.8269   -7.5904 H         1 SUB1        0.042
     73 H           8.5871    2.1514   -8.8217 H         1 SUB1        0.042
     74 H          10.9380    0.3668   -8.1323 H         1 SUB1        0.024
     75 H          10.9242    1.6710   -9.3448 H         1 SUB1        0.024
     76 H          10.7230    2.0581   -7.6183 H         1 SUB1        0.024
     77 H           7.2418   -0.8767   -8.4455 H         1 SUB1        0.043
     78 H           6.5909    0.5825   -9.2791 H         1 SUB1        0.043
     79 H           8.6930   -0.6758  -14.0061 H         1 SUB1        0.031
     80 H          11.0824   -0.5029  -14.1477 H         1 SUB1        0.027
     81 H          11.1203    0.0584  -12.4940 H         1 SUB1        0.027
     82 H          11.9113    1.7501  -14.4660 H         1 SUB1        0.035
     83 H          11.4026    2.0567  -11.9580 H         1 SUB1        0.060
     84 H          13.5076    3.0685  -11.8716 H         1 SUB1        0.052
     85 H          13.5981    2.5063  -13.5589 H         1 SUB1        0.052
     86 H          13.9805    4.1998  -13.1629 H         1 SUB1        0.052
     87 H           9.6307    4.2058  -12.9865 H         1 SUB1        0.032
     88 H           9.7243    3.3788  -11.3254 H         1 SUB1        0.032
     89 H           7.6762    1.4237  -14.3786 H         1 SUB1        0.036
     90 H           9.7227    1.4117  -15.7897 H         1 SUB1        0.060
     91 H           8.8253    2.8410  -17.1013 H         1 SUB1        0.052
     92 H           7.7155    3.2650  -15.7748 H         1 SUB1        0.052
     93 H           8.6831    4.5334  -16.5660 H         1 SUB1        0.052
     94 H           6.6217    2.9487  -13.3188 H         1 SUB1        0.210
     95 H           6.8952    3.3953  -10.9334 H         1 SUB1        0.211
     96 H           5.8294    1.1481  -11.1077 H         1 SUB1        0.063
     97 H           4.6615   -0.1882  -13.1418 H         1 SUB1        0.052
     98 H           4.0866    1.3345  -12.4193 H         1 SUB1        0.052
     99 H           4.3098    1.2138  -14.1819 H         1 SUB1        0.052
@<TRIPOS>BOND
     1    1    2 2  
     2    2    3 1  
     3    2    8 am 
     4    3    4 1  
     5    4    5 1  
     6    4    6 1  
     7    6    7 2  
     8    6    8 am 
     9    8    9 1  
    10    9   10 ar 
    11    9   14 ar 
    12   10   11 ar 
    13   11   12 ar 
    14   12   13 ar 
    15   13   14 ar 
    16   14   15 1  
    17   15   16 2  
    18   15   17 1  
    19   17   18 1  
    20   18   19 1  
    21   19   20 1  
    22   19   26 1  
    23   19   31 1  
    24   20   21 1  
    25   21   22 1  
    26   22   23 1  
    27   22   25 1  
    28   23   24 1  
    29   25   26 1  
    30   25   27 1  
    31   25   32 1  
    32   26   47 1  
    33   27   28 1  
    34   27   45 1  
    35   28   29 1  
    36   28   31 1  
    37   29   30 1  
    38   32   33 1  
    39   32   39 1  
    40   33   34 1  
    41   34   35 1  
    42   34   40 1  
    43   35   36 1  
    44   35   38 1  
    45   36   37 1  
    46   38   43 1  
    47   39   40 1  
    48   39   43 1  
    49   40   41 1  
    50   41   42 1  
    51   43   44 1  
    52   43   45 1  
    53   45   46 1  
    54   45   47 1  
    55   47   48 1  
    56   48   49 1  
    57    3   50 1  
    58    3   51 1  
    59    4   52 1  
    60    5   53 1  
    61    5   54 1  
    62    5   55 1  
    63   10   56 1  
    64   11   57 1  
    65   12   58 1  
    66   13   59 1  
    67   18   60 1  
    68   18   61 1  
    69   20   62 1  
    70   20   63 1  
    71   21   64 1  
    72   21   65 1  
    73   22   66 1  
    74   24   67 1  
    75   24   68 1  
    76   24   69 1  
    77   26   70 1  
    78   27   71 1  
    79   29   72 1  
    80   29   73 1  
    81   30   74 1  
    82   30   75 1  
    83   30   76 1  
    84   31   77 1  
    85   31   78 1  
    86   32   79 1  
    87   33   80 1  
    88   33   81 1  
    89   34   82 1  
    90   35   83 1  
    91   37   84 1  
    92   37   85 1  
    93   37   86 1  
    94   38   87 1  
    95   38   88 1  
    96   39   89 1  
    97   40   90 1  
    98   42   91 1  
    99   42   92 1  
   100   42   93 1  
   101   44   94 1  
   102   46   95 1  
   103   47   96 1  
   104   49   97 1  
   105   49   98 1  
   106   49   99 1  
@<TRIPOS>SUBSTRUCTURE
     1 SUB1        1 GROUP

