2ccc_ligand
  -I-interpret- 

 32 34  0  0  0  0  0  0  0  0999 V2000
    0.2490   22.4040   -2.6790 N   0  0  0  0  0
   -0.4620   22.0870   -3.7800 C   0  0  0  0  0
    0.7630   21.3990   -1.8810 C   0  0  0  0  0
   -0.9270   23.0190   -4.4840 O   0  0  0  0  0
   -0.6750   20.7960   -4.1560 N   0  0  0  0  0
   -0.2500   19.7400   -3.4680 C   0  0  0  0  0
   -0.4810   18.5650   -3.8510 O   0  0  0  0  0
    0.5460   19.9810   -2.2490 C   0  0  0  0  0
    1.0340   18.9650   -1.4800 N   0  0  0  0  0
    1.7610   19.2720   -0.3810 C   0  0  0  0  0
    2.2940   18.2810    0.4310 C   0  0  0  0  0
    1.9830   20.7080   -0.0290 C   0  0  0  0  0
    3.0320   18.6200    1.5660 C   0  0  0  0  0
    3.6180   17.5160    2.4430 C   0  0  0  0  0
    3.2650   20.0340    1.9100 C   0  0  0  0  0
    4.0580   20.3880    3.1600 C   0  0  0  0  0
    2.7230   21.0530    1.1250 C   0  0  0  0  0
    1.4730   21.6750   -0.8040 N   0  0  0  0  0
    1.6990   23.0980   -0.4510 C   0  0  0  0  0
    0.4070   23.3819   -2.4358 H   0  0  0  0  0
   -1.1926   20.6282   -5.0188 H   0  0  0  0  0
    2.1354   17.2320    0.1810 H   0  0  0  0  0
    2.8112   16.8905    2.8251 H   0  0  0  0  0
    4.3017   16.9077    1.8508 H   0  0  0  0  0
    4.1580   17.9644    3.2770 H   0  0  0  0  0
    4.9174   20.9985    2.8828 H   0  0  0  0  0
    3.4212   20.9454    3.8470 H   0  0  0  0  0
    4.4013   19.4728    3.6423 H   0  0  0  0  0
    2.8681   22.0984    1.3975 H   0  0  0  0  0
    1.2792   23.2975    0.5349 H   0  0  0  0  0
    2.7696   23.3026   -0.4396 H   0  0  0  0  0
    1.2138   23.7358   -1.1898 H   0  0  0  0  0
  1  2  1  0  0  0
  1  3  1  0  0  0
  2  4  2  0  0  0
  2  5  1  0  0  0
  3  8  4  0  0  0
  3 18  4  0  0  0
  5  6  1  0  0  0
  6  7  2  0  0  0
  6  8  1  0  0  0
  8  9  4  0  0  0
  9 10  4  0  0  0
 10 11  4  0  0  0
 10 12  4  0  0  0
 11 13  4  0  0  0
 12 17  4  0  0  0
 12 18  4  0  0  0
 13 14  1  0  0  0
 13 15  4  0  0  0
 15 16  1  0  0  0
 15 17  4  0  0  0
 18 19  1  0  0  0
  1 20  1  0  0  0
  5 21  1  0  0  0
 11 22  1  0  0  0
 14 23  1  0  0  0
 14 24  1  0  0  0
 14 25  1  0  0  0
 16 26  1  0  0  0
 16 27  1  0  0  0
 16 28  1  0  0  0
 17 29  1  0  0  0
 19 30  1  0  0  0
 19 31  1  0  0  0
 19 32  1  0  0  0
M  END
$$$$
