### 
### Created by X-TOOL on Sun Jun  3 11:19:20 2007
### 

@<TRIPOS>MOLECULE
2ccc_ligand
   32    34     1     0     0
SMALL
GAST_HUCK


@<TRIPOS>ATOM
      1 N1          0.2490   22.4040   -2.6790 N.am      1 SUB1       -0.162
      2 C2         -0.4620   22.0870   -3.7800 C.2       1 SUB1        0.335
      3 C10         0.7630   21.3990   -1.8810 C.ar      1 SUB1        0.234
      4 O2         -0.9270   23.0190   -4.4840 O.2       1 SUB1       -0.378
      5 N3         -0.6750   20.7960   -4.1560 N.am      1 SUB1       -0.182
      6 C4         -0.2500   19.7400   -3.4680 C.2       1 SUB1        0.219
      7 O4         -0.4810   18.5650   -3.8510 O.2       1 SUB1       -0.396
      8 C4A         0.5460   19.9810   -2.2490 C.ar      1 SUB1        0.134
      9 N5          1.0340   18.9650   -1.4800 N.ar      1 SUB1       -0.360
     10 C5A         1.7610   19.2720   -0.3810 C.ar      1 SUB1        0.010
     11 C6          2.2940   18.2810    0.4310 C.ar      1 SUB1       -0.072
     12 C9A         1.9830   20.7080   -0.0290 C.ar      1 SUB1        0.079
     13 C7          3.0320   18.6200    1.5660 C.ar      1 SUB1       -0.063
     14 C7M         3.6180   17.5160    2.4430 C.3       1 SUB1       -0.039
     15 C8          3.2650   20.0340    1.9100 C.ar      1 SUB1       -0.059
     16 C8M         4.0580   20.3880    3.1600 C.3       1 SUB1       -0.039
     17 C9          2.7230   21.0530    1.1250 C.ar      1 SUB1       -0.043
     18 N10         1.4730   21.6750   -0.8040 N.pl3     1 SUB1       -0.214
     19 C1          1.6990   23.0980   -0.4510 C.3       1 SUB1        0.048
     20 H           0.4070   23.3819   -2.4358 H         1 SUB1        0.253
     21 H          -1.1926   20.6282   -5.0188 H         1 SUB1        0.226
     22 H           2.1354   17.2320    0.1810 H         1 SUB1        0.038
     23 H           2.8112   16.8905    2.8251 H         1 SUB1        0.036
     24 H           4.3017   16.9077    1.8508 H         1 SUB1        0.036
     25 H           4.1580   17.9644    3.2770 H         1 SUB1        0.036
     26 H           4.9174   20.9985    2.8828 H         1 SUB1        0.037
     27 H           3.4212   20.9454    3.8470 H         1 SUB1        0.037
     28 H           4.4013   19.4728    3.6423 H         1 SUB1        0.037
     29 H           2.8681   22.0984    1.3975 H         1 SUB1        0.042
     30 H           1.2792   23.2975    0.5349 H         1 SUB1        0.056
     31 H           2.7696   23.3026   -0.4396 H         1 SUB1        0.056
     32 H           1.2138   23.7358   -1.1898 H         1 SUB1        0.056
@<TRIPOS>BOND
     1    1    2 am 
     2    1    3 1  
     3    2    4 2  
     4    2    5 am 
     5    3    8 ar 
     6    3   18 ar 
     7    5    6 am 
     8    6    7 2  
     9    6    8 1  
    10    8    9 ar 
    11    9   10 ar 
    12   10   11 ar 
    13   10   12 ar 
    14   11   13 ar 
    15   12   17 ar 
    16   12   18 ar 
    17   13   14 1  
    18   13   15 ar 
    19   15   16 1  
    20   15   17 ar 
    21   18   19 1  
    22    1   20 1  
    23    5   21 1  
    24   11   22 1  
    25   14   23 1  
    26   14   24 1  
    27   14   25 1  
    28   16   26 1  
    29   16   27 1  
    30   16   28 1  
    31   17   29 1  
    32   19   30 1  
    33   19   31 1  
    34   19   32 1  
@<TRIPOS>SUBSTRUCTURE
     1 SUB1        1 GROUP

