### 
### Created by X-TOOL on Mon Oct 24 22:39:45 2005
### 

@<TRIPOS>MOLECULE
1str_ligand
   96    97     1     0     0
SMALL
GAST_HUCK


@<TRIPOS>ATOM
      1 H491       19.6119   -2.2424   20.7871 H         1 SUB1        0.188
      2 H501       18.1332    0.1597   20.4697 H         1 SUB1        0.081
      3 H531       17.9463    0.0796   22.9426 H         1 SUB1        0.042
      4 H532       18.9770    1.4613   22.4377 H         1 SUB1        0.042
      5 H541       21.1487   -0.1377   22.7615 H         1 SUB1        0.102
      6 H551       18.9138    1.1036   19.1454 H         1 SUB1        0.189
      7 H561       21.6603    2.2744   19.3085 H         1 SUB1        0.082
      8 H591       20.3216    1.2558   16.7176 H         1 SUB1        0.049
      9 H592       21.8019    0.5543   17.4546 H         1 SUB1        0.049
     10 H611       20.5029    3.7480   15.8303 H         1 SUB1        0.239
     11 H621       24.1400    2.0458   17.2377 H         1 SUB1        0.032
     12 H631       22.4026    5.4419   15.4328 H         1 SUB1        0.115
     13 H661       18.3101    5.3461   19.4656 H         1 SUB1        0.080
     14 H691       19.2783    7.3752   19.7786 H         1 SUB1        0.031
     15 H692       20.0337    7.3707   18.1489 H         1 SUB1        0.031
     16 H701       21.0369    6.2460   20.7409 H         1 SUB1        0.029
     17 H702       21.9285    7.0587   19.4101 H         1 SUB1        0.029
     18 H711       21.9666    4.3810   19.7129 H         1 SUB1        0.052
     19 H712       21.9598    5.1474   18.0884 H         1 SUB1        0.052
     20 H721       19.8618    4.7754   16.3555 H         1 SUB1        0.188
     21 H731       18.3981    6.4979   14.7461 H         1 SUB1        0.080
     22 H761       19.2220    3.6759   13.9674 H         1 SUB1        0.034
     23 H762       20.3601    5.0601   14.0922 H         1 SUB1        0.034
     24 H771       18.7809    6.3324   12.5085 H         1 SUB1        0.050
     25 H772       17.9394    4.7690   12.2366 H         1 SUB1        0.050
     26 H801       18.5053    4.1019   10.1922 H         1 SUB1        0.181
     27 H802       20.1321    4.0453    9.6004 H         1 SUB1        0.181
     28 H811       17.2217    3.1475   15.7151 H         1 SUB1        0.189
     29 H821       14.6433    4.3098   14.7814 H         1 SUB1        0.083
     30 H851       14.1637    1.9119   13.8689 H         1 SUB1        0.055
     31 H852       15.9515    1.7804   13.7535 H         1 SUB1        0.055
     32 H881       16.8282    2.4034   11.8993 H         1 SUB1        0.181
     33 H882       16.1417    3.4923   10.7405 H         1 SUB1        0.181
     34 H891       13.1847    3.7596   15.8308 H         1 SUB1        0.188
     35 H901       11.9656    3.5275   17.7152 H         1 SUB1        0.083
     36 H931       11.5693    1.5421   16.1562 H         1 SUB1        0.064
     37 H941       10.4199    0.4367   17.8767 H         1 SUB1        0.210
     38 H951       12.3190   -0.7361   17.4844 H         1 SUB1        0.026
     39 H952       13.7719    0.2891   17.7382 H         1 SUB1        0.026
     40 H953       13.1935   -0.0521   16.0722 H         1 SUB1        0.026
     41 H481       18.5027   -4.1735   21.0085 H         1 SUB1        0.047
     42 H482       16.7647   -3.9986   20.5894 H         1 SUB1        0.047
     43 H483       17.2650   -4.1302   22.3096 H         1 SUB1        0.047
     44 H961       13.7022    1.6773   20.6965 H         1 SUB1        0.182
     45 H962       12.5462    0.9858   19.6077 H         1 SUB1        0.182
     46 C          17.6770   -2.2200   21.3980 C.2       1 SUB1        0.175
     47 O          16.7060   -1.5320   21.7330 O.2       1 SUB1       -0.397
     48 CH3        17.5430   -3.7360   21.3210 C.3       1 SUB1        0.026
     49 N          18.8400   -1.6640   21.0510 N.am      1 SUB1       -0.265
     50 CA         18.9840   -0.2160   21.0570 C.3       1 SUB1        0.140
     51 C          20.2410    0.4240   20.4650 C.2       1 SUB1        0.205
     52 O          21.4250    0.1810   20.7530 O.2       1 SUB1       -0.394
     53 CB         18.8880    0.3650   22.4510 C.3       1 SUB1        0.031
     54 SG         20.3070   -0.4020   23.2490 S.3       1 SUB1       -0.174
     55 N          19.8680    1.1490   19.4410 N.am      1 SUB1       -0.262
     56 CA         20.7680    2.0060   18.7240 C.3       1 SUB1        0.142
     57 C          19.7310    3.1570   18.6150 C.2       1 SUB1        0.208
     58 O          18.5170    2.8830   18.4750 O.2       1 SUB1       -0.394
     59 CB         21.2080    1.4720   17.3320 C.3       1 SUB1        0.043
     60 CG         22.0630    2.5630   16.6530 C.2       1 SUB1        0.056
     61 ND1        21.4950    3.6170   16.0740 N.pl3     1 SUB1       -0.262
     62 CD2        23.4140    2.7350   16.8090 C.2       1 SUB1       -0.028
     63 CE1        22.4940    4.4550   15.8840 C.2       1 SUB1        0.087
     64 NE2        23.6170    3.9270   16.3180 N.2       1 SUB1       -0.344
     65 N          20.0620    4.4660   18.7680 N.am      1 SUB1       -0.250
     66 CA         19.0800    5.5310   18.7020 C.3       1 SUB1        0.134
     67 C          18.3700    5.6830   17.3740 C.2       1 SUB1        0.204
     68 O          17.2620    6.1990   17.3390 O.2       1 SUB1       -0.394
     69 CB         19.8470    6.7740   19.0540 C.3       1 SUB1       -0.010
     70 CG         21.1280    6.3430   19.6490 C.3       1 SUB1       -0.028
     71 CD         21.3990    5.0270   19.0270 C.3       1 SUB1        0.037
     72 N          18.9820    5.2420   16.2650 N.am      1 SUB1       -0.264
     73 CA         18.4180    5.4150   14.9380 C.3       1 SUB1        0.133
     74 C          17.0130    4.9100   14.7310 C.2       1 SUB1        0.204
     75 O          16.2540    5.5840   14.0350 O.2       1 SUB1       -0.394
     76 CB         19.3160    4.7700   13.9030 C.3       1 SUB1        0.004
     77 CG         18.9000    5.2390   12.4940 C.3       1 SUB1        0.041
     78 CD         19.9080    4.8800   11.4390 C.2       1 SUB1        0.174
     79 OE1        21.1010    5.1020   11.6670 O.2       1 SUB1       -0.397
     80 NE2        19.4790    4.2930   10.3160 N.am      1 SUB1       -0.301
     81 N          16.6090    3.7520   15.2060 N.am      1 SUB1       -0.262
     82 CA         15.2460    3.4060   14.9540 C.3       1 SUB1        0.148
     83 C          14.8340    2.7290   16.1970 C.2       1 SUB1        0.206
     84 O          15.6210    2.0070   16.8170 O.2       1 SUB1       -0.394
     85 CB         15.1010    2.4780   13.7640 C.3       1 SUB1        0.077
     86 CG         15.0710    3.2400   12.4320 C.2       1 SUB1        0.178
     87 OD1        14.1440    3.9800   12.0700 O.2       1 SUB1       -0.397
     88 ND2        16.0970    3.0280   11.6250 N.am      1 SUB1       -0.301
     89 N          13.5900    3.1180   16.4820 N.am      1 SUB1       -0.261
     90 CA         12.7310    2.7450   17.6060 C.3       1 SUB1        0.156
     91 C          13.4530    2.6730   18.9510 C.2       1 SUB1        0.202
     92 O          14.2680    3.5530   19.2580 O.2       1 SUB1       -0.395
     93 CB         11.9820    1.3940   17.1650 C.3       1 SUB1        0.092
     94 OG1        10.9010    1.2270   18.0920 O.3       1 SUB1       -0.387
     95 CG2        12.8820    0.1320   17.1110 C.3       1 SUB1       -0.035
     96 N          13.2140    1.6980   19.8240 N.am      1 SUB1       -0.299
@<TRIPOS>BOND
     1   49    1 1  
     2   50    2 1  
     3   53    3 1  
     4   53    4 1  
     5   54    5 1  
     6   55    6 1  
     7   56    7 1  
     8   59    8 1  
     9   59    9 1  
    10   61   10 1  
    11   62   11 1  
    12   63   12 1  
    13   66   13 1  
    14   69   14 1  
    15   69   15 1  
    16   70   16 1  
    17   70   17 1  
    18   71   18 1  
    19   71   19 1  
    20   72   20 1  
    21   73   21 1  
    22   76   22 1  
    23   76   23 1  
    24   77   24 1  
    25   77   25 1  
    26   80   26 1  
    27   80   27 1  
    28   81   28 1  
    29   82   29 1  
    30   85   30 1  
    31   85   31 1  
    32   88   32 1  
    33   88   33 1  
    34   89   34 1  
    35   90   35 1  
    36   93   36 1  
    37   94   37 1  
    38   95   38 1  
    39   95   39 1  
    40   95   40 1  
    41   48   41 1  
    42   48   42 1  
    43   48   43 1  
    44   46   47 2  
    45   46   48 1  
    46   51   50 1  
    47   50   53 1  
    48   50   49 1  
    49   53   54 1  
    50   51   52 2  
    51   57   56 1  
    52   56   59 1  
    53   56   55 1  
    54   59   60 1  
    55   60   62 2  
    56   60   61 1  
    57   61   63 1  
    58   63   64 2  
    59   62   64 1  
    60   57   58 2  
    61   66   65 1  
    62   66   69 1  
    63   67   66 1  
    64   67   68 2  
    65   69   70 1  
    66   70   71 1  
    67   65   71 1  
    68   74   73 1  
    69   73   76 1  
    70   73   72 1  
    71   76   77 1  
    72   77   78 1  
    73   78   79 2  
    74   78   80 am 
    75   74   75 2  
    76   83   82 1  
    77   82   85 1  
    78   82   81 1  
    79   85   86 1  
    80   86   87 2  
    81   86   88 am 
    82   83   84 2  
    83   91   90 1  
    84   90   93 1  
    85   90   89 1  
    86   93   94 1  
    87   93   95 1  
    88   91   92 2  
    89   96   44 1  
    90   96   45 1  
    91   49   46 am 
    92   55   51 am 
    93   65   57 am 
    94   72   67 am 
    95   81   74 am 
    96   89   83 am 
    97   91   96 am 
@<TRIPOS>SUBSTRUCTURE
     1 SUB1        1 GROUP

