1str_ligand
  -I-interpret- 

 96 97  0  0  0  0  0  0  0  0999 V2000
   19.6119   -2.2424   20.7871 H   0  0  0  0  0
   18.1332    0.1597   20.4697 H   0  0  0  0  0
   17.9463    0.0796   22.9426 H   0  0  0  0  0
   18.9770    1.4613   22.4377 H   0  0  0  0  0
   21.1487   -0.1377   22.7615 H   0  0  0  0  0
   18.9138    1.1036   19.1454 H   0  0  0  0  0
   21.6603    2.2744   19.3085 H   0  0  0  0  0
   20.3216    1.2558   16.7176 H   0  0  0  0  0
   21.8019    0.5543   17.4546 H   0  0  0  0  0
   20.5029    3.7480   15.8303 H   0  0  0  0  0
   24.1400    2.0458   17.2377 H   0  0  0  0  0
   22.4026    5.4419   15.4328 H   0  0  0  0  0
   18.3101    5.3461   19.4656 H   0  0  0  0  0
   19.2783    7.3752   19.7786 H   0  0  0  0  0
   20.0337    7.3707   18.1489 H   0  0  0  0  0
   21.0369    6.2460   20.7409 H   0  0  0  0  0
   21.9285    7.0587   19.4101 H   0  0  0  0  0
   21.9666    4.3810   19.7129 H   0  0  0  0  0
   21.9598    5.1474   18.0884 H   0  0  0  0  0
   19.8618    4.7754   16.3555 H   0  0  0  0  0
   18.3981    6.4979   14.7461 H   0  0  0  0  0
   19.2220    3.6759   13.9674 H   0  0  0  0  0
   20.3601    5.0601   14.0922 H   0  0  0  0  0
   18.7809    6.3324   12.5085 H   0  0  0  0  0
   17.9394    4.7690   12.2366 H   0  0  0  0  0
   18.5053    4.1019   10.1922 H   0  0  0  0  0
   20.1321    4.0453    9.6004 H   0  0  0  0  0
   17.2217    3.1475   15.7151 H   0  0  0  0  0
   14.6433    4.3098   14.7814 H   0  0  0  0  0
   14.1637    1.9119   13.8689 H   0  0  0  0  0
   15.9515    1.7804   13.7535 H   0  0  0  0  0
   16.8282    2.4034   11.8993 H   0  0  0  0  0
   16.1417    3.4923   10.7405 H   0  0  0  0  0
   13.1847    3.7596   15.8308 H   0  0  0  0  0
   11.9656    3.5275   17.7152 H   0  0  0  0  0
   11.5693    1.5421   16.1562 H   0  0  0  0  0
   10.4199    0.4367   17.8767 H   0  0  0  0  0
   12.3190   -0.7361   17.4844 H   0  0  0  0  0
   13.7719    0.2891   17.7382 H   0  0  0  0  0
   13.1935   -0.0521   16.0722 H   0  0  0  0  0
   18.5027   -4.1735   21.0085 H   0  0  0  0  0
   16.7647   -3.9986   20.5894 H   0  0  0  0  0
   17.2650   -4.1302   22.3096 H   0  0  0  0  0
   13.7022    1.6773   20.6965 H   0  0  0  0  0
   12.5462    0.9858   19.6077 H   0  0  0  0  0
   17.6770   -2.2200   21.3980 C   0  0  0  0  0
   16.7060   -1.5320   21.7330 O   0  0  0  0  0
   17.5430   -3.7360   21.3210 C   0  0  0  0  0
   18.8400   -1.6640   21.0510 N   0  0  0  0  0
   18.9840   -0.2160   21.0570 C   0  0  0  0  0
   20.2410    0.4240   20.4650 C   0  0  0  0  0
   21.4250    0.1810   20.7530 O   0  0  0  0  0
   18.8880    0.3650   22.4510 C   0  0  0  0  0
   20.3070   -0.4020   23.2490 S   0  0  0  0  0
   19.8680    1.1490   19.4410 N   0  0  0  0  0
   20.7680    2.0060   18.7240 C   0  0  0  0  0
   19.7310    3.1570   18.6150 C   0  0  0  0  0
   18.5170    2.8830   18.4750 O   0  0  0  0  0
   21.2080    1.4720   17.3320 C   0  0  0  0  0
   22.0630    2.5630   16.6530 C   0  0  0  0  0
   21.4950    3.6170   16.0740 N   0  0  0  0  0
   23.4140    2.7350   16.8090 C   0  0  0  0  0
   22.4940    4.4550   15.8840 C   0  0  0  0  0
   23.6170    3.9270   16.3180 N   0  0  0  0  0
   20.0620    4.4660   18.7680 N   0  0  0  0  0
   19.0800    5.5310   18.7020 C   0  0  0  0  0
   18.3700    5.6830   17.3740 C   0  0  0  0  0
   17.2620    6.1990   17.3390 O   0  0  0  0  0
   19.8470    6.7740   19.0540 C   0  0  0  0  0
   21.1280    6.3430   19.6490 C   0  0  0  0  0
   21.3990    5.0270   19.0270 C   0  0  0  0  0
   18.9820    5.2420   16.2650 N   0  0  0  0  0
   18.4180    5.4150   14.9380 C   0  0  0  0  0
   17.0130    4.9100   14.7310 C   0  0  0  0  0
   16.2540    5.5840   14.0350 O   0  0  0  0  0
   19.3160    4.7700   13.9030 C   0  0  0  0  0
   18.9000    5.2390   12.4940 C   0  0  0  0  0
   19.9080    4.8800   11.4390 C   0  0  0  0  0
   21.1010    5.1020   11.6670 O   0  0  0  0  0
   19.4790    4.2930   10.3160 N   0  0  0  0  0
   16.6090    3.7520   15.2060 N   0  0  0  0  0
   15.2460    3.4060   14.9540 C   0  0  0  0  0
   14.8340    2.7290   16.1970 C   0  0  0  0  0
   15.6210    2.0070   16.8170 O   0  0  0  0  0
   15.1010    2.4780   13.7640 C   0  0  0  0  0
   15.0710    3.2400   12.4320 C   0  0  0  0  0
   14.1440    3.9800   12.0700 O   0  0  0  0  0
   16.0970    3.0280   11.6250 N   0  0  0  0  0
   13.5900    3.1180   16.4820 N   0  0  0  0  0
   12.7310    2.7450   17.6060 C   0  0  0  0  0
   13.4530    2.6730   18.9510 C   0  0  0  0  0
   14.2680    3.5530   19.2580 O   0  0  0  0  0
   11.9820    1.3940   17.1650 C   0  0  0  0  0
   10.9010    1.2270   18.0920 O   0  0  0  0  0
   12.8820    0.1320   17.1110 C   0  0  0  0  0
   13.2140    1.6980   19.8240 N   0  0  0  0  0
 49  1  1  0  0  0
 50  2  1  0  0  0
 53  3  1  0  0  0
 53  4  1  0  0  0
 54  5  1  0  0  0
 55  6  1  0  0  0
 56  7  1  0  0  0
 59  8  1  0  0  0
 59  9  1  0  0  0
 61 10  1  0  0  0
 62 11  1  0  0  0
 63 12  1  0  0  0
 66 13  1  0  0  0
 69 14  1  0  0  0
 69 15  1  0  0  0
 70 16  1  0  0  0
 70 17  1  0  0  0
 71 18  1  0  0  0
 71 19  1  0  0  0
 72 20  1  0  0  0
 73 21  1  0  0  0
 76 22  1  0  0  0
 76 23  1  0  0  0
 77 24  1  0  0  0
 77 25  1  0  0  0
 80 26  1  0  0  0
 80 27  1  0  0  0
 81 28  1  0  0  0
 82 29  1  0  0  0
 85 30  1  0  0  0
 85 31  1  0  0  0
 88 32  1  0  0  0
 88 33  1  0  0  0
 89 34  1  0  0  0
 90 35  1  0  0  0
 93 36  1  0  0  0
 94 37  1  0  0  0
 95 38  1  0  0  0
 95 39  1  0  0  0
 95 40  1  0  0  0
 48 41  1  0  0  0
 48 42  1  0  0  0
 48 43  1  0  0  0
 46 47  2  0  0  0
 46 48  1  0  0  0
 51 50  1  0  0  0
 50 53  1  0  0  0
 50 49  1  0  0  0
 53 54  1  0  0  0
 51 52  2  0  0  0
 57 56  1  0  0  0
 56 59  1  0  0  0
 56 55  1  0  0  0
 59 60  1  0  0  0
 60 62  2  0  0  0
 60 61  1  0  0  0
 61 63  1  0  0  0
 63 64  2  0  0  0
 62 64  1  0  0  0
 57 58  2  0  0  0
 66 65  1  0  0  0
 66 69  1  0  0  0
 67 66  1  0  0  0
 67 68  2  0  0  0
 69 70  1  0  0  0
 70 71  1  0  0  0
 65 71  1  0  0  0
 74 73  1  0  0  0
 73 76  1  0  0  0
 73 72  1  0  0  0
 76 77  1  0  0  0
 77 78  1  0  0  0
 78 79  2  0  0  0
 78 80  1  0  0  0
 74 75  2  0  0  0
 83 82  1  0  0  0
 82 85  1  0  0  0
 82 81  1  0  0  0
 85 86  1  0  0  0
 86 87  2  0  0  0
 86 88  1  0  0  0
 83 84  2  0  0  0
 91 90  1  0  0  0
 90 93  1  0  0  0
 90 89  1  0  0  0
 93 94  1  0  0  0
 93 95  1  0  0  0
 91 92  2  0  0  0
 96 44  1  0  0  0
 96 45  1  0  0  0
 49 46  1  0  0  0
 55 51  1  0  0  0
 65 57  1  0  0  0
 72 67  1  0  0  0
 81 74  1  0  0  0
 89 83  1  0  0  0
 91 96  1  0  0  0
M  END
$$$$
