1pvn_ligand
  -I-interpret- 

 34 35  0  0  0  0  0  0  0  0999 V2000
  -21.5720   34.9220   48.5230 P   0  0  0  0  0
  -20.2120   35.1940   47.9980 O   0  5  0  0  0
  -21.6910   35.2580   49.9670 O   0  5  0  0  0
  -21.9350   33.5210   48.2340 O   0  0  0  0  0
  -22.5630   35.7870   47.7450 O   0  0  0  0  0
  -23.9840   35.6990   48.0670 C   0  0  0  0  0
  -24.6160   36.8350   47.2280 C   0  0  0  0  0
  -24.5190   36.5730   45.8170 O   0  0  0  0  0
  -26.1230   36.9920   47.4710 C   0  0  0  0  0
  -26.3850   37.7370   48.6330 O   0  0  0  0  0
  -26.6090   37.6990   46.1920 C   0  0  0  0  0
  -26.4240   39.1210   46.2600 O   0  0  0  0  0
  -25.7100   37.0760   45.1490 C   0  0  0  0  0
  -26.3340   36.0070   44.3190 N   0  0  0  0  0
  -27.2220   35.0220   44.4970 C   0  0  0  0  0
  -27.4230   34.3380   43.4360 N   0  0  0  0  0
  -26.6270   34.8940   42.4990 C   0  0  0  0  0
  -26.4900   34.4480   41.0880 C   0  0  0  0  0
  -27.1210   33.4890   40.6670 O   0  0  0  0  0
  -25.9510   35.9380   43.0260 C   0  0  0  0  0
  -25.6380   35.0920   40.1970 N   0  0  0  0  0
  -25.0620   36.7270   42.3630 O   0  0  0  0  0
  -24.4011   34.7258   47.7690 H   0  0  0  0  0
  -24.1616   35.8708   49.1389 H   0  0  0  0  0
  -24.1114   37.7798   47.4784 H   0  0  0  0  0
  -26.6107   36.0098   47.5572 H   0  0  0  0  0
  -26.0031   38.6025   48.5457 H   0  0  0  0  0
  -27.6643   37.4726   45.9800 H   0  0  0  0  0
  -26.9142   39.4682   46.9960 H   0  0  0  0  0
  -25.4116   37.8700   44.4486 H   0  0  0  0  0
  -26.8495   34.3406   45.2760 H   0  0  0  0  0
  -28.1827   35.4580   44.8082 H   0  0  0  0  0
  -25.5657   34.7702   39.2530 H   0  0  0  0  0
  -25.0977   35.8769   40.5004 H   0  0  0  0  0
  1  2  1  0  0  0
  1  3  1  0  0  0
  1  4  2  0  0  0
  1  5  1  0  0  0
  5  6  1  0  0  0
  6  7  1  0  0  0
  7  8  1  0  0  0
  7  9  1  0  0  0
  8 13  1  0  0  0
  9 10  1  0  0  0
  9 11  1  0  0  0
 11 12  1  0  0  0
 11 13  1  0  0  0
 13 14  1  0  0  0
 14 15  1  0  0  0
 14 20  1  0  0  0
 15 16  1  0  0  0
 16 17  2  0  0  0
 17 18  1  0  0  0
 17 20  1  0  0  0
 18 19  2  0  0  0
 18 21  1  0  0  0
 20 22  2  0  0  0
  6 23  1  0  0  0
  6 24  1  0  0  0
  7 25  1  0  0  0
  9 26  1  0  0  0
 10 27  1  0  0  0
 11 28  1  0  0  0
 12 29  1  0  0  0
 13 30  1  0  0  0
 15 31  1  0  0  0
 15 32  1  0  0  0
 21 33  1  0  0  0
 21 34  1  0  0  0
M  END
$$$$
