### 
### Created by X-TOOL on Tue Oct 25 00:08:45 2005
### 

@<TRIPOS>MOLECULE
1pvn_ligand
   34    35     1     0     0
SMALL
GAST_HUCK


@<TRIPOS>ATOM
      1 P         -21.5720   34.9220   48.5230 P.3       1 SUB1        0.205
      2 O1P       -20.2120   35.1940   47.9980 O.co2     1 SUB1       -0.535
      3 O2P       -21.6910   35.2580   49.9670 O.co2     1 SUB1       -0.535
      4 O3P       -21.9350   33.5210   48.2340 O.co2     1 SUB1       -0.535
      5 O5'       -22.5630   35.7870   47.7450 O.3       1 SUB1       -0.320
      6 C5'       -23.9840   35.6990   48.0670 C.3       1 SUB1        0.094
      7 C4'       -24.6160   36.8350   47.2280 C.3       1 SUB1        0.117
      8 O4'       -24.5190   36.5730   45.8170 O.3       1 SUB1       -0.343
      9 C3'       -26.1230   36.9920   47.4710 C.3       1 SUB1        0.114
     10 O3'       -26.3850   37.7370   48.6330 O.3       1 SUB1       -0.386
     11 C2'       -26.6090   37.6990   46.1920 C.3       1 SUB1        0.131
     12 O2'       -26.4240   39.1210   46.2600 O.3       1 SUB1       -0.384
     13 C1'       -25.7100   37.0760   45.1490 C.3       1 SUB1        0.176
     14 N1        -26.3340   36.0070   44.3190 N.am      1 SUB1       -0.220
     15 C2        -27.2220   35.0220   44.4970 C.3       1 SUB1        0.117
     16 N3        -27.4230   34.3380   43.4360 N.2       1 SUB1       -0.252
     17 C4        -26.6270   34.8940   42.4990 C.2       1 SUB1        0.218
     18 C6        -26.4900   34.4480   41.0880 C.2       1 SUB1        0.255
     19 O6        -27.1210   33.4890   40.6670 O.2       1 SUB1       -0.364
     20 C5        -25.9510   35.9380   43.0260 C.2       1 SUB1        0.263
     21 N6        -25.6380   35.0920   40.1970 N.am      1 SUB1       -0.293
     22 O5        -25.0620   36.7270   42.3630 O.2       1 SUB1       -0.364
     23 H61       -24.4011   34.7258   47.7690 H         1 SUB1        0.064
     24 H62       -24.1616   35.8708   49.1389 H         1 SUB1        0.064
     25 H71       -24.1114   37.7798   47.4784 H         1 SUB1        0.065
     26 H91       -26.6107   36.0098   47.5572 H         1 SUB1        0.065
     27 H101      -26.0031   38.6025   48.5457 H         1 SUB1        0.210
     28 H111      -27.6643   37.4726   45.9800 H         1 SUB1        0.067
     29 H121      -26.9142   39.4682   46.9960 H         1 SUB1        0.210
     30 H131      -25.4116   37.8700   44.4486 H         1 SUB1        0.090
     31 H151      -26.8495   34.3406   45.2760 H         1 SUB1        0.072
     32 H152      -28.1827   35.4580   44.8082 H         1 SUB1        0.072
     33 H211      -25.5657   34.7702   39.2530 H         1 SUB1        0.182
     34 H212      -25.0977   35.8769   40.5004 H         1 SUB1        0.182
@<TRIPOS>BOND
     1    1    2 2  
     2    1    3 2  
     3    1    4 2  
     4    1    5 1  
     5    5    6 1  
     6    6    7 1  
     7    7    8 1  
     8    7    9 1  
     9    8   13 1  
    10    9   10 1  
    11    9   11 1  
    12   11   12 1  
    13   11   13 1  
    14   13   14 1  
    15   14   15 1  
    16   14   20 am 
    17   15   16 1  
    18   16   17 2  
    19   17   18 1  
    20   17   20 1  
    21   18   19 2  
    22   18   21 am 
    23   20   22 2  
    24    6   23 1  
    25    6   24 1  
    26    7   25 1  
    27    9   26 1  
    28   10   27 1  
    29   11   28 1  
    30   12   29 1  
    31   13   30 1  
    32   15   31 1  
    33   15   32 1  
    34   21   33 1  
    35   21   34 1  
@<TRIPOS>SUBSTRUCTURE
     1 SUB1        1 GROUP

