1z4n_ligand
  -I-interpret- 

 27 27  0  0  0  0  0  0  0  0999 V2000
    5.3660   -5.0040   12.9930 C   0  0  0  0  0
    4.1770   -4.0390   12.9810 C   0  0  0  0  0
    4.3350   -3.0040   11.8920 C   0  0  0  0  0
    5.6880   -2.2170   12.0570 C   0  0  0  0  0
    6.8150   -3.2490   12.0690 C   0  0  0  0  0
    8.1570   -2.5360   12.2870 C   0  0  0  0  0
    5.4440   -5.7050   11.7610 O   0  0  0  0  0
    2.9240   -4.7720   12.8030 O   0  0  0  0  0
    3.2360   -2.1080   11.8970 O   0  0  0  0  0
    5.6200   -1.4030   13.2770 O   0  0  0  0  0
    6.6050   -4.2260   13.1260 O   0  0  0  0  0
    8.5430   -2.1310   10.9990 O   0  0  0  0  0
    4.8800   -7.2420   11.5720 P   0  0  0  0  0
    5.3460   -7.8810   10.2060 O   0  0  0  0  0
    5.4980   -7.9990   12.8190 O   0  5  0  0  0
    3.2940   -7.3390   11.6960 O   0  5  0  0  0
    5.2641   -5.7128   13.8279 H   0  0  0  0  0
    4.1425   -3.5204   13.9504 H   0  0  0  0  0
    4.3542   -3.5234   10.9225 H   0  0  0  0  0
    5.8333   -1.5449   11.1984 H   0  0  0  0  0
    6.8346   -3.7693   11.1000 H   0  0  0  0  0
    8.8990   -3.2238   12.7188 H   0  0  0  0  0
    8.0341   -1.6664   12.9493 H   0  0  0  0  0
    2.9301   -5.2069   11.9584 H   0  0  0  0  0
    2.4286   -2.5984   11.7967 H   0  0  0  0  0
    4.9019   -0.7853   13.2046 H   0  0  0  0  0
    9.3755   -1.6759   11.0476 H   0  0  0  0  0
  1  2  1  0  0  0
  1  7  1  0  0  0
  1 11  1  0  0  0
  2  3  1  0  0  0
  2  8  1  0  0  0
  3  4  1  0  0  0
  3  9  1  0  0  0
  4  5  1  0  0  0
  4 10  1  0  0  0
  5  6  1  0  0  0
  5 11  1  0  0  0
  6 12  1  0  0  0
  7 13  1  0  0  0
 13 14  2  0  0  0
 13 15  1  0  0  0
 13 16  1  0  0  0
  1 17  1  0  0  0
  2 18  1  0  0  0
  3 19  1  0  0  0
  4 20  1  0  0  0
  5 21  1  0  0  0
  6 22  1  0  0  0
  6 23  1  0  0  0
  8 24  1  0  0  0
  9 25  1  0  0  0
 10 26  1  0  0  0
 12 27  1  0  0  0
M  END
$$$$
