### 
### Created by X-TOOL on Mon Oct 24 23:39:18 2005
### 

@<TRIPOS>MOLECULE
1z4n_ligand
   27    27     1     0     0
SMALL
GAST_HUCK


@<TRIPOS>ATOM
      1 C1          5.3660   -5.0040   12.9930 C.3       1 SUB1        0.206
      2 C2          4.1770   -4.0390   12.9810 C.3       1 SUB1        0.138
      3 C3          4.3350   -3.0040   11.8920 C.3       1 SUB1        0.115
      4 C4          5.6880   -2.2170   12.0570 C.3       1 SUB1        0.112
      5 C5          6.8150   -3.2490   12.0690 C.3       1 SUB1        0.113
      6 C6          8.1570   -2.5360   12.2870 C.3       1 SUB1        0.073
      7 O1          5.4440   -5.7050   11.7610 O.3       1 SUB1       -0.290
      8 O2          2.9240   -4.7720   12.8030 O.3       1 SUB1       -0.384
      9 O3          3.2360   -2.1080   11.8970 O.3       1 SUB1       -0.386
     10 O4          5.6200   -1.4030   13.2770 O.3       1 SUB1       -0.387
     11 O5          6.6050   -4.2260   13.1260 O.3       1 SUB1       -0.337
     12 O6          8.5430   -2.1310   10.9990 O.3       1 SUB1       -0.392
     13 P           4.8800   -7.2420   11.5720 P.3       1 SUB1        0.207
     14 O1P         5.3460   -7.8810   10.2060 O.co2     1 SUB1       -0.535
     15 O2P         5.4980   -7.9990   12.8190 O.co2     1 SUB1       -0.535
     16 O3P         3.2940   -7.3390   11.6960 O.co2     1 SUB1       -0.535
     17 H11         5.2641   -5.7128   13.8279 H         1 SUB1        0.099
     18 H21         4.1425   -3.5204   13.9504 H         1 SUB1        0.068
     19 H31         4.3542   -3.5234   10.9225 H         1 SUB1        0.065
     20 H41         5.8333   -1.5449   11.1984 H         1 SUB1        0.065
     21 H51         6.8346   -3.7693   11.1000 H         1 SUB1        0.065
     22 H61         8.8990   -3.2238   12.7188 H         1 SUB1        0.058
     23 H62         8.0341   -1.6664   12.9493 H         1 SUB1        0.058
     24 H81         2.9301   -5.2069   11.9584 H         1 SUB1        0.210
     25 H91         2.4286   -2.5984   11.7967 H         1 SUB1        0.210
     26 H101        4.9019   -0.7853   13.2046 H         1 SUB1        0.210
     27 H121        9.3755   -1.6759   11.0476 H         1 SUB1        0.209
@<TRIPOS>BOND
     1    1    2 1  
     2    1    7 1  
     3    1   11 1  
     4    2    3 1  
     5    2    8 1  
     6    3    4 1  
     7    3    9 1  
     8    4    5 1  
     9    4   10 1  
    10    5    6 1  
    11    5   11 1  
    12    6   12 1  
    13    7   13 1  
    14   13   14 2  
    15   13   15 2  
    16   13   16 2  
    17    1   17 1  
    18    2   18 1  
    19    3   19 1  
    20    4   20 1  
    21    5   21 1  
    22    6   22 1  
    23    6   23 1  
    24    8   24 1  
    25    9   25 1  
    26   10   26 1  
    27   12   27 1  
@<TRIPOS>SUBSTRUCTURE
     1 SUB1        1 GROUP

