### 
### Created by X-TOOL on Mon Oct 24 23:06:08 2005
### 

@<TRIPOS>MOLECULE
1bwa_ligand
   92    98     1     0     0
SMALL
GAST_HUCK


@<TRIPOS>ATOM
      1 O1         -8.3580   14.3690   27.8590 O.2       1 SUB1       -0.400
      2 O4        -11.8910   18.7620   28.8900 O.3       1 SUB1       -0.387
      3 O5        -10.1370   19.7280   26.9430 O.3       1 SUB1       -0.387
      4 N2         -9.7930   15.7280   28.9200 N.am      1 SUB1       -0.240
      5 N7         -8.7840   16.2900   26.8400 N.am      1 SUB1       -0.240
      6 C1         -8.9730   15.4370   27.8730 C.2       1 SUB1        0.267
      7 C2         -9.6530   14.9090   30.1200 C.3       1 SUB1        0.069
      8 C3        -10.9500   16.6370   28.8860 C.3       1 SUB1        0.085
      9 C4        -10.6870   18.1030   28.6250 C.3       1 SUB1        0.108
     10 C5        -10.2740   18.3520   27.1950 C.3       1 SUB1        0.108
     11 C6         -8.9120   17.7630   26.9200 C.3       1 SUB1        0.085
     12 C7         -8.1480   15.7780   25.6230 C.3       1 SUB1        0.069
     13 C31       -12.0780   16.0090   28.0290 C.3       1 SUB1        0.007
     14 C32       -12.5890   14.7250   28.6350 C.ar      1 SUB1       -0.041
     15 C33       -12.1590   13.4760   28.1180 C.ar      1 SUB1       -0.060
     16 C34       -12.5370   12.2830   28.7720 C.ar      1 SUB1       -0.069
     17 C35       -13.3440   12.3320   29.9340 C.ar      1 SUB1       -0.069
     18 C36       -13.7830   13.5790   30.4380 C.ar      1 SUB1       -0.069
     19 C37       -13.4120   14.7790   29.7860 C.ar      1 SUB1       -0.060
     20 C61        -7.7630   18.3390   27.7900 C.3       1 SUB1        0.007
     21 C62        -6.3930   18.2430   27.1510 C.ar      1 SUB1       -0.041
     22 C63        -6.1140   18.9910   25.9780 C.ar      1 SUB1       -0.060
     23 C64        -4.8300   18.9310   25.4040 C.ar      1 SUB1       -0.069
     24 C65        -3.8360   18.1180   26.0040 C.ar      1 SUB1       -0.069
     25 C66        -4.1140   17.3680   27.1680 C.ar      1 SUB1       -0.069
     26 C67        -5.4020   17.4330   27.7450 C.ar      1 SUB1       -0.060
     27 C20        -9.6150   15.6240   31.4390 C.ar      1 SUB1       -0.015
     28 C21       -10.3830   15.1080   32.4860 C.ar      1 SUB1       -0.038
     29 C22       -10.3150   15.7180   33.7460 C.ar      1 SUB1        0.052
     30 C23        -9.4980   16.8440   33.9610 C.ar      1 SUB1       -0.048
     31 C24        -8.7280   17.3670   32.9040 C.ar      1 SUB1       -0.063
     32 C25        -8.7880   16.7530   31.6390 C.ar      1 SUB1       -0.054
     33 C26       -11.0400   15.1270   34.9080 C.2       1 SUB1        0.242
     34 O26       -11.4380   15.7730   35.8640 O.2       1 SUB1       -0.368
     35 N26       -11.1630   13.7970   34.8420 N.am      1 SUB1       -0.194
     36 N27       -11.8210   11.7350   36.0720 N.2       1 SUB1       -0.323
     37 C27       -11.7640   13.0730   35.9500 C.2       1 SUB1        0.206
     38 C28       -12.4490   11.3390   37.2270 C.2       1 SUB1       -0.047
     39 S29       -12.4960   13.8250   37.2690 S.3       1 SUB1        0.011
     40 C29       -12.9080   12.3870   38.0520 C.2       1 SUB1       -0.008
     41 C70        -8.8520   16.0600   24.3210 C.ar      1 SUB1       -0.015
     42 C71        -8.0610   16.4370   23.2340 C.ar      1 SUB1       -0.038
     43 C72        -8.6740   16.6870   21.9910 C.ar      1 SUB1        0.052
     44 C73       -10.0620   16.5500   21.8310 C.ar      1 SUB1       -0.048
     45 C74       -10.8510   16.1590   22.9300 C.ar      1 SUB1       -0.063
     46 C75       -10.2500   15.9200   24.1780 C.ar      1 SUB1       -0.054
     47 C76        -7.8340   17.1140   20.8420 C.2       1 SUB1        0.242
     48 O76        -8.2430   17.7920   19.9120 O.2       1 SUB1       -0.368
     49 N76        -6.5720   16.6560   20.9400 N.am      1 SUB1       -0.194
     50 N77        -4.4000   16.0960   19.9120 N.2       1 SUB1       -0.323
     51 C77        -5.5410   16.8080   19.9110 C.2       1 SUB1        0.206
     52 C78        -3.6460   16.3330   18.7850 C.2       1 SUB1       -0.047
     53 S79        -5.6640   17.7690   18.5030 S.3       1 SUB1        0.011
     54 C79        -4.1910   17.2530   17.8610 C.2       1 SUB1       -0.008
     55 H21       -11.7769   19.6951   28.7528 H         1 SUB1        0.210
     56 H31       -10.9677   20.1616   27.0991 H         1 SUB1        0.210
     57 H71        -8.7161   14.3405   30.0250 H         1 SUB1        0.068
     58 H72       -10.5038   14.2122   30.1460 H         1 SUB1        0.068
     59 H81       -11.3367   16.6271   29.9157 H         1 SUB1        0.061
     60 H91        -9.8963   18.4669   29.2976 H         1 SUB1        0.064
     61 H101      -11.0238   17.9131   26.5204 H         1 SUB1        0.064
     62 H111       -8.6922   18.1077   25.8988 H         1 SUB1        0.061
     63 H121       -8.0624   14.6862   25.7258 H         1 SUB1        0.068
     64 H122       -7.1428   16.2204   25.5609 H         1 SUB1        0.068
     65 H131      -11.6860   15.7974   27.0232 H         1 SUB1        0.045
     66 H132      -12.9102   16.7245   27.9552 H         1 SUB1        0.045
     67 H151      -11.5439   13.4376   27.2262 H         1 SUB1        0.056
     68 H161      -12.2080   11.3262   28.3829 H         1 SUB1        0.060
     69 H171      -13.6256   11.4143   30.4376 H         1 SUB1        0.056
     70 H181      -14.4047   13.6153   31.3253 H         1 SUB1        0.060
     71 H191      -13.7560   15.7343   30.1656 H         1 SUB1        0.056
     72 H201       -7.7397   17.7863   28.7408 H         1 SUB1        0.045
     73 H202       -7.9780   19.3995   27.9875 H         1 SUB1        0.045
     74 H221       -6.8849   19.6050   25.5266 H         1 SUB1        0.056
     75 H231       -4.6034   19.5017   24.5107 H         1 SUB1        0.060
     76 H241       -2.8470   18.0711   25.5626 H         1 SUB1        0.056
     77 H251       -3.3456   16.7477   27.6150 H         1 SUB1        0.060
     78 H261       -5.6277   16.8636   28.6394 H         1 SUB1        0.056
     79 H281      -11.0227   14.2476   32.3259 H         1 SUB1        0.061
     80 H301       -9.4615   17.3084   34.9398 H         1 SUB1        0.061
     81 H311       -8.0959   18.2332   33.0631 H         1 SUB1        0.061
     82 H321       -8.1998   17.1460   30.8176 H         1 SUB1        0.059
     83 H351      -10.8429   13.3026   34.0338 H         1 SUB1        0.241
     84 H381      -12.5832   10.2902   37.4876 H         1 SUB1        0.050
     85 H401      -13.4255   12.2882   39.0051 H         1 SUB1        0.057
     86 H421       -6.9873   16.5361   23.3455 H         1 SUB1        0.061
     87 H441      -10.5228   16.7437   20.8691 H         1 SUB1        0.061
     88 H451      -11.9224   16.0423   22.8135 H         1 SUB1        0.061
     89 H461      -10.8573   15.6293   25.0275 H         1 SUB1        0.059
     90 H491       -6.3191   16.1752   21.7796 H         1 SUB1        0.241
     91 H521       -2.6888   15.8420   18.6159 H         1 SUB1        0.050
     92 H541       -3.7468   17.5678   16.9179 H         1 SUB1        0.057
@<TRIPOS>BOND
     1    1    6 2  
     2    6    4 am 
     3    6    5 am 
     4    5   11 1  
     5    5   12 1  
     6   12   41 1  
     7   41   46 ar 
     8   41   42 ar 
     9   42   43 ar 
    10   43   47 1  
    11   43   44 ar 
    12   44   45 ar 
    13   45   46 ar 
    14   47   49 am 
    15   47   48 2  
    16   49   51 am 
    17   51   50 2  
    18   51   53 1  
    19   53   54 1  
    20   54   52 2  
    21   52   50 1  
    22   11   20 1  
    23   11   10 1  
    24   10    3 1  
    25   10    9 1  
    26    9    2 1  
    27    9    8 1  
    28    8    4 1  
    29    8   13 1  
    30   13   14 1  
    31   14   19 ar 
    32   14   15 ar 
    33   15   16 ar 
    34   16   17 ar 
    35   17   18 ar 
    36   18   19 ar 
    37    4    7 1  
    38    7   27 1  
    39   27   32 ar 
    40   27   28 ar 
    41   28   29 ar 
    42   29   33 1  
    43   29   30 ar 
    44   30   31 ar 
    45   31   32 ar 
    46   33   35 am 
    47   33   34 2  
    48   35   37 am 
    49   37   36 2  
    50   37   39 1  
    51   39   40 1  
    52   40   38 2  
    53   38   36 1  
    54   20   21 1  
    55   21   26 ar 
    56   21   22 ar 
    57   22   23 ar 
    58   23   24 ar 
    59   24   25 ar 
    60   25   26 ar 
    61    2   55 1  
    62    3   56 1  
    63    7   57 1  
    64    7   58 1  
    65    8   59 1  
    66    9   60 1  
    67   10   61 1  
    68   11   62 1  
    69   12   63 1  
    70   12   64 1  
    71   13   65 1  
    72   13   66 1  
    73   15   67 1  
    74   16   68 1  
    75   17   69 1  
    76   18   70 1  
    77   19   71 1  
    78   20   72 1  
    79   20   73 1  
    80   22   74 1  
    81   23   75 1  
    82   24   76 1  
    83   25   77 1  
    84   26   78 1  
    85   28   79 1  
    86   30   80 1  
    87   31   81 1  
    88   32   82 1  
    89   35   83 1  
    90   38   84 1  
    91   40   85 1  
    92   42   86 1  
    93   44   87 1  
    94   45   88 1  
    95   46   89 1  
    96   49   90 1  
    97   52   91 1  
    98   54   92 1  
@<TRIPOS>SUBSTRUCTURE
     1 SUB1        1 GROUP

