1cny_ligand
  -I-interpret- 

 64 65  0  0  0  0  0  0  0  0999 V2000
   -6.0570    1.1260   17.0250 S   0  0  0  0  0
   -5.6570    1.0840   18.4380 O   0  0  0  0  0
   -7.4720    1.0420   16.8840 O   0  0  0  0  0
   -5.3550   -0.0420   16.4600 N   0  0  0  0  0
   -4.5530    4.6290   14.6940 C   0  0  0  0  0
   -3.7060    3.5860   15.0470 C   0  0  0  0  0
   -4.1460    2.5020   15.7530 C   0  0  0  0  0
   -5.4760    2.4600   16.1070 C   0  0  0  0  0
   -6.3240    3.4610   15.7530 C   0  0  0  0  0
   -5.8840    4.5870   15.0470 C   0  0  0  0  0
   -4.0700    5.6710   13.9870 C   0  0  0  0  0
   -4.6680    6.6720   13.4930 O   0  0  0  0  0
   -2.6360    5.8380   13.5630 N   0  0  0  0  0
   -2.3600    6.8800   12.5040 C   0  0  0  0  0
   -1.9520    8.2150   13.0690 C   0  0  0  0  0
   -1.1000    8.1730   14.0580 O   0  0  0  0  0
   -1.2600    9.0910   15.3290 C   0  0  0  0  0
   -1.1310   10.5500   14.8350 C   0  0  0  0  0
   -0.3360   11.3350   15.7840 O   0  0  0  0  0
    0.7430   12.0990   15.0450 C   0  0  0  0  0
    1.4770   12.9510   15.9490 C   0  0  0  0  0
    2.3130   13.8210   15.1390 N   0  0  0  0  0
    3.1130   14.7450   16.0470 C   0  0  0  0  0
    3.0030   14.6740   17.2760 O   0  0  0  0  0
    4.1370   15.6800   15.4470 C   0  0  0  0  0
    3.4680   16.9810   15.0790 N   0  3  0  0  0
    5.3480   15.9350   16.3490 C   0  0  0  0  0
    6.2940   16.9980   15.7530 C   0  0  0  0  0
    7.2000   16.5800   14.7590 C   0  0  0  0  0
    8.0720   17.5260   14.1870 C   0  0  0  0  0
    8.0340   18.8060   14.5990 C   0  0  0  0  0
    7.1290   19.2250   15.5950 C   0  0  0  0  0
    6.2890   18.2640   16.1870 C   0  0  0  0  0
   -5.5263   -0.9623   16.8338 H   0  0  0  0  0
   -2.6636    3.6336   14.7532 H   0  0  0  0  0
   -3.4693    1.7003   16.0258 H   0  0  0  0  0
   -7.3706    3.3856   16.0249 H   0  0  0  0  0
   -6.5623    5.3922   14.7889 H   0  0  0  0  0
   -1.9027    5.2873   13.9618 H   0  0  0  0  0
   -3.2725    7.0190   11.9057 H   0  0  0  0  0
   -1.5496    6.5131   11.8569 H   0  0  0  0  0
   -2.8599    8.7231   13.4260 H   0  0  0  0  0
   -1.4987    8.8020   12.2566 H   0  0  0  0  0
   -0.4708    8.8667   16.0617 H   0  0  0  0  0
   -2.2454    8.9320   15.7912 H   0  0  0  0  0
   -2.1335   10.9939   14.7458 H   0  0  0  0  0
   -0.6372   10.5590   13.8521 H   0  0  0  0  0
    0.2766   12.7181   14.2645 H   0  0  0  0  0
    1.4372   11.3838   14.5797 H   0  0  0  0  0
    2.1037   12.3410   16.6161 H   0  0  0  0  0
    0.7790   13.5523   16.5500 H   0  0  0  0  0
    2.3562   13.8139   14.1400 H   0  0  0  0  0
    4.5104   15.2131   14.5237 H   0  0  0  0  0
    4.1487   17.6072   14.6783 H   0  0  0  0  0
    3.0712   17.4003   15.9053 H   0  0  0  0  0
    2.7372   16.8049   14.4075 H   0  0  0  0  0
    5.9036   14.9938   16.4733 H   0  0  0  0  0
    4.9937   16.2840   17.3302 H   0  0  0  0  0
    7.2256   15.5447   14.4389 H   0  0  0  0  0
    8.7721   17.2236   13.4166 H   0  0  0  0  0
    8.7113   19.5279   14.1572 H   0  0  0  0  0
    7.0812   20.2646   15.8982 H   0  0  0  0  0
    5.6329   18.5512   17.0007 H   0  0  0  0  0
   -4.7092    0.0793   15.7062 H   0  0  0  0  0
  1  8  1  0  0  0
  1  4  1  0  0  0
  1  3  2  0  0  0
  1  2  2  0  0  0
  8  9  4  0  0  0
  8  7  4  0  0  0
  7  6  4  0  0  0
  6  5  4  0  0  0
  5 11  1  0  0  0
  5 10  4  0  0  0
 10  9  4  0  0  0
 11 13  1  0  0  0
 11 12  2  0  0  0
 13 14  1  0  0  0
 14 15  1  0  0  0
 15 16  1  0  0  0
 16 17  1  0  0  0
 17 18  1  0  0  0
 18 19  1  0  0  0
 19 20  1  0  0  0
 20 21  1  0  0  0
 21 22  1  0  0  0
 22 23  1  0  0  0
 23 25  1  0  0  0
 23 24  2  0  0  0
 25 27  1  0  0  0
 25 26  1  0  0  0
 27 28  1  0  0  0
 28 33  4  0  0  0
 28 29  4  0  0  0
 29 30  4  0  0  0
 30 31  4  0  0  0
 31 32  4  0  0  0
 32 33  4  0  0  0
  4 34  1  0  0  0
  6 35  1  0  0  0
  7 36  1  0  0  0
  9 37  1  0  0  0
 10 38  1  0  0  0
 13 39  1  0  0  0
 14 40  1  0  0  0
 14 41  1  0  0  0
 15 42  1  0  0  0
 15 43  1  0  0  0
 17 44  1  0  0  0
 17 45  1  0  0  0
 18 46  1  0  0  0
 18 47  1  0  0  0
 20 48  1  0  0  0
 20 49  1  0  0  0
 21 50  1  0  0  0
 21 51  1  0  0  0
 22 52  1  0  0  0
 25 53  1  0  0  0
 26 54  1  0  0  0
 26 55  1  0  0  0
 26 56  1  0  0  0
 27 57  1  0  0  0
 27 58  1  0  0  0
 29 59  1  0  0  0
 30 60  1  0  0  0
 31 61  1  0  0  0
 32 62  1  0  0  0
 33 63  1  0  0  0
  4 64  1  0  0  0
M  END
$$$$
