### 
### Created by X-TOOL on Tue Oct 25 01:46:55 2005
### 

@<TRIPOS>MOLECULE
1cny_ligand
   64    65     1     0     0
SMALL
GAST_HUCK


@<TRIPOS>ATOM
      1 S          -6.0570    1.1260   17.0250 S.o2      1 SUB1        0.068
      2 O1         -5.6570    1.0840   18.4380 O.2       1 SUB1       -0.150
      3 O2         -7.4720    1.0420   16.8840 O.2       1 SUB1       -0.150
      4 N1         -5.3550   -0.0420   16.4600 N.am      1 SUB1       -0.261
      5 C1         -4.5530    4.6290   14.6940 C.ar      1 SUB1        0.050
      6 C2         -3.7060    3.5860   15.0470 C.ar      1 SUB1       -0.040
      7 C3         -4.1460    2.5020   15.7530 C.ar      1 SUB1       -0.030
      8 C4         -5.4760    2.4600   16.1070 C.ar      1 SUB1        0.112
      9 C5         -6.3240    3.4610   15.7530 C.ar      1 SUB1       -0.030
     10 C6         -5.8840    4.5870   15.0470 C.ar      1 SUB1       -0.040
     11 C7         -4.0700    5.6710   13.9870 C.2       1 SUB1        0.205
     12 O3         -4.6680    6.6720   13.4930 O.2       1 SUB1       -0.385
     13 N2         -2.6360    5.8380   13.5630 N.am      1 SUB1       -0.284
     14 C8         -2.3600    6.8800   12.5040 C.3       1 SUB1        0.054
     15 C9         -1.9520    8.2150   13.0690 C.3       1 SUB1        0.068
     16 O4         -1.1000    8.1730   14.0580 O.3       1 SUB1       -0.375
     17 C10        -1.2600    9.0910   15.3290 C.3       1 SUB1        0.071
     18 C11        -1.1310   10.5500   14.8350 C.3       1 SUB1        0.071
     19 O5         -0.3360   11.3350   15.7840 O.3       1 SUB1       -0.375
     20 C12         0.7430   12.0990   15.0450 C.3       1 SUB1        0.068
     21 C13         1.4770   12.9510   15.9490 C.3       1 SUB1        0.054
     22 N3          2.3130   13.8210   15.1390 N.am      1 SUB1       -0.280
     23 C14         3.1130   14.7450   16.0470 C.2       1 SUB1        0.227
     24 O6          3.0030   14.6740   17.2760 O.2       1 SUB1       -0.391
     25 C15         4.1370   15.6800   15.4470 C.3       1 SUB1        0.074
     26 N4          3.4680   16.9810   15.0790 N.4       1 SUB1        0.239
     27 C16         5.3480   15.9350   16.3490 C.3       1 SUB1        0.042
     28 C17         6.2940   16.9980   15.7530 C.ar      1 SUB1       -0.035
     29 C18         7.2000   16.5800   14.7590 C.ar      1 SUB1       -0.060
     30 C19         8.0720   17.5260   14.1870 C.ar      1 SUB1       -0.069
     31 C20         8.0340   18.8060   14.5990 C.ar      1 SUB1       -0.069
     32 C21         7.1290   19.2250   15.5950 C.ar      1 SUB1       -0.069
     33 C22         6.2890   18.2640   16.1870 C.ar      1 SUB1       -0.060
     34 H41        -5.5263   -0.9623   16.8338 H         1 SUB1        0.163
     35 H61        -2.6636    3.6336   14.7532 H         1 SUB1        0.067
     36 H71        -3.4693    1.7003   16.0258 H         1 SUB1        0.065
     37 H91        -7.3706    3.3856   16.0249 H         1 SUB1        0.065
     38 H101       -6.5623    5.3922   14.7889 H         1 SUB1        0.067
     39 H131       -1.9027    5.2873   13.9618 H         1 SUB1        0.184
     40 H141       -3.2725    7.0190   11.9057 H         1 SUB1        0.054
     41 H142       -1.5496    6.5131   11.8569 H         1 SUB1        0.054
     42 H151       -2.8599    8.7231   13.4260 H         1 SUB1        0.058
     43 H152       -1.4987    8.8020   12.2566 H         1 SUB1        0.058
     44 H171       -0.4708    8.8667   16.0617 H         1 SUB1        0.058
     45 H172       -2.2454    8.9320   15.7912 H         1 SUB1        0.058
     46 H181       -2.1335   10.9939   14.7458 H         1 SUB1        0.058
     47 H182       -0.6372   10.5590   13.8521 H         1 SUB1        0.058
     48 H201        0.2766   12.7181   14.2645 H         1 SUB1        0.058
     49 H202        1.4372   11.3838   14.5797 H         1 SUB1        0.058
     50 H211        2.1037   12.3410   16.6161 H         1 SUB1        0.054
     51 H212        0.7790   13.5523   16.5500 H         1 SUB1        0.054
     52 H221        2.3562   13.8139   14.1400 H         1 SUB1        0.185
     53 H251        4.5104   15.2131   14.5237 H         1 SUB1        0.112
     54 H261        4.1487   17.6072   14.6783 H         1 SUB1        0.202
     55 H262        3.0712   17.4003   15.9053 H         1 SUB1        0.202
     56 H263        2.7372   16.8049   14.4075 H         1 SUB1        0.202
     57 H271        5.9036   14.9938   16.4733 H         1 SUB1        0.051
     58 H272        4.9937   16.2840   17.3302 H         1 SUB1        0.051
     59 H291        7.2256   15.5447   14.4389 H         1 SUB1        0.056
     60 H301        8.7721   17.2236   13.4166 H         1 SUB1        0.060
     61 H311        8.7113   19.5279   14.1572 H         1 SUB1        0.056
     62 H321        7.0812   20.2646   15.8982 H         1 SUB1        0.060
     63 H331        5.6329   18.5512   17.0007 H         1 SUB1        0.056
     64 H42        -4.7092    0.0793   15.7062 H         1 SUB1        0.163
@<TRIPOS>BOND
     1    1    8 1  
     2    1    4 1  
     3    1    3 2  
     4    1    2 2  
     5    8    9 ar 
     6    8    7 ar 
     7    7    6 ar 
     8    6    5 ar 
     9    5   11 1  
    10    5   10 ar 
    11   10    9 ar 
    12   11   13 am 
    13   11   12 2  
    14   13   14 1  
    15   14   15 1  
    16   15   16 1  
    17   16   17 1  
    18   17   18 1  
    19   18   19 1  
    20   19   20 1  
    21   20   21 1  
    22   21   22 1  
    23   22   23 am 
    24   23   25 1  
    25   23   24 2  
    26   25   27 1  
    27   25   26 1  
    28   27   28 1  
    29   28   33 ar 
    30   28   29 ar 
    31   29   30 ar 
    32   30   31 ar 
    33   31   32 ar 
    34   32   33 ar 
    35    4   34 1  
    36    6   35 1  
    37    7   36 1  
    38    9   37 1  
    39   10   38 1  
    40   13   39 1  
    41   14   40 1  
    42   14   41 1  
    43   15   42 1  
    44   15   43 1  
    45   17   44 1  
    46   17   45 1  
    47   18   46 1  
    48   18   47 1  
    49   20   48 1  
    50   20   49 1  
    51   21   50 1  
    52   21   51 1  
    53   22   52 1  
    54   25   53 1  
    55   26   54 1  
    56   26   55 1  
    57   26   56 1  
    58   27   57 1  
    59   27   58 1  
    60   29   59 1  
    61   30   60 1  
    62   31   61 1  
    63   32   62 1  
    64   33   63 1  
    65    4   64 1  
@<TRIPOS>SUBSTRUCTURE
     1 SUB1        1 GROUP

