456c_ligand
  -I-interpret- 

 48 50  0  0  0  0  0  0  0  0999 V2000
  -10.2175   25.7099   50.7203 H   0  0  0  0  0
  -10.8823   26.7064   48.5332 H   0  0  0  0  0
   -6.9380   28.4053   48.1426 H   0  0  0  0  0
   -8.2050   26.4530   50.6170 C   0  0  0  0  0
   -9.5010   26.2820   50.1420 C   0  0  0  0  0
   -9.8810   26.8440   48.9250 C   0  0  0  0  0
   -8.9300   27.5900   48.2270 C   0  0  0  0  0
   -7.6420   27.7990   48.7010 C   0  0  0  0  0
   -7.2760   27.2160   49.9030 C   0  0  0  0  0
   -7.8700   25.7800   51.7780 O   0  0  0  0  0
   -7.2370   26.4150   52.8450 C   0  0  0  0  0
   -6.8490   25.5710   53.8770 C   0  0  0  0  0
   -6.3180   26.0780   55.0490 C   0  0  0  0  0
   -6.1830   27.4460   55.1960 C   0  0  0  0  0
   -6.5050   28.3000   54.1530 C   0  0  0  0  0
   -7.0270   27.7940   52.9740 C   0  0  0  0  0
   -5.6130   28.1620   56.7250 S   0  0  0  0  0
   -5.6520   27.1610   57.7450 O   0  0  0  0  0
   -6.4490   29.3070   56.9080 O   0  0  0  0  0
   -3.8810   28.7010   56.5780 C   0  0  0  0  0
   -3.6280   29.6000   57.8350 C   0  0  0  0  0
   -2.3980   30.5270   57.7130 C   0  0  0  0  0
   -2.4130   31.2060   56.4750 O   0  0  0  0  0
   -2.4250   30.3770   55.3210 C   0  0  0  0  0
   -3.7240   29.5820   55.3110 C   0  0  0  0  0
   -2.9130   27.4700   56.6050 C   0  0  0  0  0
   -2.8230   26.5310   55.3820 C   0  0  0  0  0
   -2.9440   25.2310   55.6160 N   0  0  0  0  0
   -2.5970   26.9030   54.2270 O   0  0  0  0  0
   -2.5660   24.3950   54.5570 O   0  0  0  0  0
   -6.2721   27.3509   50.2891 H   0  0  0  0  0
   -6.9640   24.4992   53.7624 H   0  0  0  0  0
   -6.0106   25.4092   55.8448 H   0  0  0  0  0
   -6.3479   29.3672   54.2602 H   0  0  0  0  0
   -7.2717   28.4614   52.1556 H   0  0  0  0  0
   -3.4800   28.9432   58.7049 H   0  0  0  0  0
   -4.5176   30.2266   57.9958 H   0  0  0  0  0
   -1.4811   29.9235   57.7840 H   0  0  0  0  0
   -2.4167   31.2632   58.5301 H   0  0  0  0  0
   -1.5683   29.6877   55.3503 H   0  0  0  0  0
   -2.3640   30.9995   54.4162 H   0  0  0  0  0
   -4.5689   30.2845   55.2610 H   0  0  0  0  0
   -3.7346   28.9318   54.4238 H   0  0  0  0  0
   -3.2138   26.8483   57.4611 H   0  0  0  0  0
   -1.9010   27.8655   56.7767 H   0  0  0  0  0
   -3.2812   24.8729   56.4867 H   0  0  0  0  0
   -3.1046   24.5844   53.7977 H   0  0  0  0  0
   -9.3320   28.2410   46.6920 Cl  0  0  0  0  0
  4 10  1  0  0  0
  4  9  4  0  0  0
  4  5  4  0  0  0
  5  6  4  0  0  0
  6  7  4  0  0  0
  7  8  4  0  0  0
  8  9  4  0  0  0
 10 11  1  0  0  0
 11 16  4  0  0  0
 11 12  4  0  0  0
 12 13  4  0  0  0
 13 14  4  0  0  0
 14 17  1  0  0  0
 14 15  4  0  0  0
 15 16  4  0  0  0
 17 20  1  0  0  0
 17 19  2  0  0  0
 17 18  2  0  0  0
 20 26  1  0  0  0
 20 25  1  0  0  0
 20 21  1  0  0  0
  5  1  1  0  0  0
  6  2  1  0  0  0
 21 22  1  0  0  0
  7 48  1  0  0  0
  8  3  1  0  0  0
 22 23  1  0  0  0
 23 24  1  0  0  0
  9 31  1  0  0  0
 12 32  1  0  0  0
 24 25  1  0  0  0
 13 33  1  0  0  0
 15 34  1  0  0  0
 16 35  1  0  0  0
 21 36  1  0  0  0
 26 27  1  0  0  0
 27 29  2  0  0  0
 27 28  1  0  0  0
 28 30  1  0  0  0
 21 37  1  0  0  0
 22 38  1  0  0  0
 22 39  1  0  0  0
 24 40  1  0  0  0
 24 41  1  0  0  0
 25 42  1  0  0  0
 25 43  1  0  0  0
 26 44  1  0  0  0
 26 45  1  0  0  0
 28 46  1  0  0  0
 30 47  1  0  0  0
M  END
$$$$
