### 
### Created by X-TOOL on Tue Oct 25 02:14:02 2005
### 

@<TRIPOS>MOLECULE
456c_ligand
   48    50     1     0     0
SMALL
GAST_HUCK


@<TRIPOS>ATOM
      1 H51       -10.2175   25.7099   50.7203 H         1 SUB1        0.055
      2 H61       -10.8823   26.7064   48.5332 H         1 SUB1        0.060
      3 H81        -6.9380   28.4053   48.1426 H         1 SUB1        0.060
      4 C1         -8.2050   26.4530   50.6170 C.ar      1 SUB1        0.116
      5 C2         -9.5010   26.2820   50.1420 C.ar      1 SUB1       -0.028
      6 C3         -9.8810   26.8440   48.9250 C.ar      1 SUB1       -0.056
      7 C4         -8.9300   27.5900   48.2270 C.ar      1 SUB1        0.029
      8 C5         -7.6420   27.7990   48.7010 C.ar      1 SUB1       -0.056
      9 C6         -7.2760   27.2160   49.9030 C.ar      1 SUB1       -0.028
     10 O11        -7.8700   25.7800   51.7780 O.3       1 SUB1       -0.258
     11 C12        -7.2370   26.4150   52.8450 C.ar      1 SUB1        0.116
     12 C13        -6.8490   25.5710   53.8770 C.ar      1 SUB1       -0.027
     13 C14        -6.3180   26.0780   55.0490 C.ar      1 SUB1       -0.045
     14 C15        -6.1830   27.4460   55.1960 C.ar      1 SUB1        0.078
     15 C16        -6.5050   28.3000   54.1530 C.ar      1 SUB1       -0.045
     16 C17        -7.0270   27.7940   52.9740 C.ar      1 SUB1       -0.027
     17 S22        -5.6130   28.1620   56.7250 S.o2      1 SUB1        0.000
     18 O23        -5.6520   27.1610   57.7450 O.2       1 SUB1       -0.170
     19 O24        -6.4490   29.3070   56.9080 O.2       1 SUB1       -0.170
     20 C25        -3.8810   28.7010   56.5780 C.3       1 SUB1        0.112
     21 C26        -3.6280   29.6000   57.8350 C.3       1 SUB1       -0.002
     22 C27        -2.3980   30.5270   57.7130 C.3       1 SUB1        0.050
     23 O28        -2.4130   31.2060   56.4750 O.3       1 SUB1       -0.380
     24 C29        -2.4250   30.3770   55.3210 C.3       1 SUB1        0.050
     25 C30        -3.7240   29.5820   55.3110 C.3       1 SUB1       -0.002
     26 C39        -2.9130   27.4700   56.6050 C.3       1 SUB1        0.064
     27 C40        -2.8230   26.5310   55.3820 C.2       1 SUB1        0.201
     28 N43        -2.9440   25.2310   55.6160 N.am      1 SUB1       -0.164
     29 O44        -2.5970   26.9030   54.2270 O.2       1 SUB1       -0.397
     30 O45        -2.5660   24.3950   54.5570 O.3       1 SUB1       -0.272
     31 H91        -6.2721   27.3509   50.2891 H         1 SUB1        0.055
     32 H121       -6.9640   24.4992   53.7624 H         1 SUB1        0.055
     33 H131       -6.0106   25.4092   55.8448 H         1 SUB1        0.061
     34 H151       -6.3479   29.3672   54.2602 H         1 SUB1        0.061
     35 H161       -7.2717   28.4614   52.1556 H         1 SUB1        0.055
     36 H211       -3.4800   28.9432   58.7049 H         1 SUB1        0.031
     37 H212       -4.5176   30.2266   57.9958 H         1 SUB1        0.031
     38 H221       -1.4811   29.9235   57.7840 H         1 SUB1        0.056
     39 H222       -2.4167   31.2632   58.5301 H         1 SUB1        0.056
     40 H241       -1.5683   29.6877   55.3503 H         1 SUB1        0.056
     41 H242       -2.3640   30.9995   54.4162 H         1 SUB1        0.056
     42 H251       -4.5689   30.2845   55.2610 H         1 SUB1        0.031
     43 H252       -3.7346   28.9318   54.4238 H         1 SUB1        0.031
     44 H261       -3.2138   26.8483   57.4611 H         1 SUB1        0.052
     45 H262       -1.9010   27.8655   56.7767 H         1 SUB1        0.052
     46 H281       -3.2812   24.8729   56.4867 H         1 SUB1        0.222
     47 H301       -3.1046   24.5844   53.7977 H         1 SUB1        0.249
     48 CL4        -9.3320   28.2410   46.6920 Cl        1 SUB1       -0.080
@<TRIPOS>BOND
     1    4   10 1  
     2    4    9 ar 
     3    4    5 ar 
     4    5    6 ar 
     5    6    7 ar 
     6    7    8 ar 
     7    8    9 ar 
     8   10   11 1  
     9   11   16 ar 
    10   11   12 ar 
    11   12   13 ar 
    12   13   14 ar 
    13   14   17 1  
    14   14   15 ar 
    15   15   16 ar 
    16   17   20 1  
    17   17   19 2  
    18   17   18 2  
    19   20   26 1  
    20   20   25 1  
    21   20   21 1  
    22    5    1 1  
    23    6    2 1  
    24   21   22 1  
    25    7   48 1  
    26    8    3 1  
    27   22   23 1  
    28   23   24 1  
    29    9   31 1  
    30   12   32 1  
    31   24   25 1  
    32   13   33 1  
    33   15   34 1  
    34   16   35 1  
    35   21   36 1  
    36   26   27 1  
    37   27   29 2  
    38   27   28 am 
    39   28   30 1  
    40   21   37 1  
    41   22   38 1  
    42   22   39 1  
    43   24   40 1  
    44   24   41 1  
    45   25   42 1  
    46   25   43 1  
    47   26   44 1  
    48   26   45 1  
    49   28   46 1  
    50   30   47 1  
@<TRIPOS>SUBSTRUCTURE
     1 SUB1        1 GROUP

