### 
### Created by X-TOOL on Mon Oct 24 21:59:44 2005
### 

@<TRIPOS>MOLECULE
1dzk_ligand
   26    26     1     0     0
SMALL
GAST_HUCK


@<TRIPOS>ATOM
      1 N1         -0.0300   24.7570   10.5420 N.ar      1 SUB1       -0.284
      2 C2         -0.4030   25.8580   11.2200 C.ar      1 SUB1        0.089
      3 C3          0.5710   26.7340   11.7610 C.ar      1 SUB1        0.198
      4 N4          1.9330   26.4290   11.6440 N.ar      1 SUB1       -0.257
      5 C5          2.2990   25.1950   10.9970 C.ar      1 SUB1        0.021
      6 C6          1.2920   24.3860   10.3500 C.ar      1 SUB1        0.020
      7 C21        -1.9300   26.1020   11.5660 C.3       1 SUB1        0.004
      8 C22        -2.1570   26.4380   13.1700 C.3       1 SUB1       -0.035
      9 C23        -3.2530   27.1590   13.7540 C.3       1 SUB1       -0.061
     10 C24        -1.1970   25.8720   14.2440 C.3       1 SUB1       -0.061
     11 O31         0.1150   27.8030   12.1900 O.3       1 SUB1       -0.298
     12 C31         0.9980   28.7750   12.7450 C.3       1 SUB1        0.064
     13 H51         3.3338   24.8723   10.9956 H         1 SUB1        0.082
     14 H61         1.5578   23.5285    9.7425 H         1 SUB1        0.079
     15 H71        -2.3017   26.9552   10.9796 H         1 SUB1        0.045
     16 H72        -2.5056   25.1978   11.3189 H         1 SUB1        0.045
     17 H81        -1.5809   27.3685   13.0596 H         1 SUB1        0.032
     18 H91        -3.1080   27.2104   14.8432 H         1 SUB1        0.023
     19 H92        -3.2881   28.1810   13.3487 H         1 SUB1        0.023
     20 H93        -4.1990   26.6391   13.5428 H         1 SUB1        0.023
     21 H101       -0.3794   25.3315   13.7445 H         1 SUB1        0.023
     22 H102       -0.7721   26.6944   14.8382 H         1 SUB1        0.023
     23 H103       -1.7381   25.1752   14.9010 H         1 SUB1        0.023
     24 H121        0.4120   29.6480   13.0682 H         1 SUB1        0.058
     25 H122        1.5213   28.3527   13.6155 H         1 SUB1        0.058
     26 H123        1.7283   29.0945   11.9871 H         1 SUB1        0.058
@<TRIPOS>BOND
     1    1    6 ar 
     2    1    2 ar 
     3    2    7 1  
     4    2    3 ar 
     5    3   11 1  
     6    3    4 ar 
     7    4    5 ar 
     8    5    6 ar 
     9   11   12 1  
    10    7    8 1  
    11    8   10 1  
    12    8    9 1  
    13    5   13 1  
    14    6   14 1  
    15    7   15 1  
    16    7   16 1  
    17    8   17 1  
    18    9   18 1  
    19    9   19 1  
    20    9   20 1  
    21   10   21 1  
    22   10   22 1  
    23   10   23 1  
    24   12   24 1  
    25   12   25 1  
    26   12   26 1  
@<TRIPOS>SUBSTRUCTURE
     1 SUB1        1 GROUP

