### 
### Created by X-TOOL on Tue Oct 25 02:43:12 2005
### 

@<TRIPOS>MOLECULE
1pxn_ligand
   37    39     1     0     0
SMALL
GAST_HUCK


@<TRIPOS>ATOM
      1 C6A        -2.4600    4.7530   25.0770 C.3       1 SUB1       -0.024
      2 C1A        -1.4870    5.8930   25.1480 C.2       1 SUB1        0.005
      3 N2A        -1.8230    6.9900   24.4360 N.2       1 SUB1       -0.292
      4 C3A        -1.0310    8.0170   24.4600 C.2       1 SUB1        0.177
      5 N7A        -1.3230    9.1160   23.7770 N.3       1 SUB1       -0.224
      6 C8A        -0.5270   10.3440   23.7120 C.3       1 SUB1        0.015
      7 C5A        -0.3030    6.0690   25.8020 C.2       1 SUB1        0.061
      8 S4A         0.3640    7.7080   25.4720 S.3       1 SUB1        0.015
      9 C4          0.5200    5.2340   26.7180 C.ar      1 SUB1        0.037
     10 C5          0.1510    3.9250   27.0580 C.ar      1 SUB1       -0.032
     11 N3          1.6430    5.8030   27.2150 N.ar      1 SUB1       -0.269
     12 C2          2.4550    5.1190   28.0750 C.ar      1 SUB1        0.192
     13 N1          2.1790    3.8330   28.4650 N.ar      1 SUB1       -0.268
     14 C6          1.0330    3.2900   27.9350 C.ar      1 SUB1        0.000
     15 N7          3.5610    5.6870   28.5730 N.pl3     1 SUB1       -0.250
     16 C1B         4.0940    6.9570   28.3490 C.ar      1 SUB1        0.055
     17 C2B         3.4980    7.8870   27.4780 C.ar      1 SUB1       -0.046
     18 C3B         3.9930    9.1440   27.2280 C.ar      1 SUB1       -0.042
     19 C6B         5.2890    7.3980   28.9900 C.ar      1 SUB1       -0.046
     20 C5B         5.8130    8.6910   28.7490 C.ar      1 SUB1       -0.042
     21 C4B         5.1570    9.5680   27.8590 C.ar      1 SUB1        0.076
     22 O7B         5.6020   10.8530   27.5600 O.3       1 SUB1       -0.340
     23 H11        -2.0906    3.9170   25.6891 H         1 SUB1        0.041
     24 H12        -2.5643    4.4245   24.0324 H         1 SUB1        0.041
     25 H13        -3.4383    5.0817   25.4575 H         1 SUB1        0.041
     26 H51        -2.2881    9.4277   24.1481 H         1 SUB1        0.172
     27 H61        -1.0328   11.0749   23.0639 H         1 SUB1        0.046
     28 H62         0.4671   10.1152   23.3005 H         1 SUB1        0.046
     29 H63        -0.4177   10.7641   24.7227 H         1 SUB1        0.046
     30 H101       -0.7424    3.4467   26.6731 H         1 SUB1        0.059
     31 H141        0.7912    2.2738   28.2248 H         1 SUB1        0.085
     32 H151        4.3553    5.0133   28.2872 H         1 SUB1        0.215
     33 H171        2.5870    7.5921   26.9699 H         1 SUB1        0.051
     34 H181        3.4770    9.8039   26.5401 H         1 SUB1        0.052
     35 H191        5.8046    6.7325   29.6729 H         1 SUB1        0.051
     36 H201        6.7207    9.0082   29.2495 H         1 SUB1        0.052
     37 H221        5.0061   11.2570   26.9401 H         1 SUB1        0.244
@<TRIPOS>BOND
     1    1    2 1  
     2    2    3 1  
     3    2    7 2  
     4    3    4 2  
     5    4    5 1  
     6    4    8 1  
     7    5    6 1  
     8    7    8 1  
     9    7    9 1  
    10    9   10 ar 
    11    9   11 ar 
    12   10   14 ar 
    13   11   12 ar 
    14   12   13 ar 
    15   12   15 1  
    16   13   14 ar 
    17   15   16 1  
    18   16   17 ar 
    19   16   19 ar 
    20   17   18 ar 
    21   18   21 ar 
    22   19   20 ar 
    23   20   21 ar 
    24   21   22 1  
    25    1   23 1  
    26    1   24 1  
    27    1   25 1  
    28    5   26 1  
    29    6   27 1  
    30    6   28 1  
    31    6   29 1  
    32   10   30 1  
    33   14   31 1  
    34   15   32 1  
    35   17   33 1  
    36   18   34 1  
    37   19   35 1  
    38   20   36 1  
    39   22   37 1  
@<TRIPOS>SUBSTRUCTURE
     1 SUB1        1 GROUP

