### 
### Created by X-TOOL on Tue Oct 25 02:06:41 2005
### 

@<TRIPOS>MOLECULE
1agm_ligand
   88    91     1     0     0
SMALL
GAST_HUCK


@<TRIPOS>ATOM
      1 C1A        32.9990   20.4720    8.0250 C.3       1 SUB1        0.014
      2 C2A        34.2520   20.3350    8.9340 C.3       1 SUB1        0.130
      3 C3A        33.8790   19.5410   10.2010 C.3       1 SUB1        0.122
      4 C4A        32.8160   20.2990   11.0310 C.3       1 SUB1        0.111
      5 C5A        31.6570   20.7750   10.1590 C.2       1 SUB1       -0.020
      6 C6A        30.5110   21.4730   10.8740 C.3       1 SUB1        0.072
      7 C7A        31.8320   20.9610    8.8150 C.2       1 SUB1       -0.054
      8 O2A        35.3210   19.6840    8.1870 O.3       1 SUB1       -0.382
      9 O3A        35.0670   19.2930   10.9520 O.3       1 SUB1       -0.384
     10 O4A        32.3380   19.3820   12.0290 O.3       1 SUB1       -0.378
     11 O6A        31.0510   22.6760   11.4800 O.3       1 SUB1       -0.384
     12 C1B        31.6500   18.1080    3.4280 C.3       1 SUB1        0.189
     13 C2B        33.1570   18.4000    3.6780 C.3       1 SUB1        0.137
     14 C3B        33.4910   18.2840    5.1820 C.3       1 SUB1        0.130
     15 C4B        32.5430   19.1850    5.9830 C.3       1 SUB1        0.034
     16 C5B        31.0810   18.7360    5.6940 C.3       1 SUB1        0.104
     17 C6B        30.0400   19.6350    6.3750 C.3       1 SUB1       -0.033
     18 N4B        32.7980   19.1470    7.4130 N.4       1 SUB1        0.243
     19 O2B        34.0410   17.5150    2.9490 O.3       1 SUB1       -0.384
     20 O3B        34.8410   18.6220    5.4600 O.3       1 SUB1       -0.383
     21 O5B        30.8430   18.8660    4.3030 O.3       1 SUB1       -0.340
     22 C1C        28.3960   13.9480    2.5860 C.3       1 SUB1        0.188
     23 C2C        28.1460   15.4160    2.1230 C.3       1 SUB1        0.134
     24 C3C        29.4980   16.2110    2.0600 C.3       1 SUB1        0.114
     25 C4C        30.1650   16.1320    3.4480 C.3       1 SUB1        0.118
     26 C5C        30.3120   14.6630    3.8850 C.3       1 SUB1        0.113
     27 C6C        30.7570   14.5730    5.3680 C.3       1 SUB1        0.073
     28 O2C        27.4260   15.5580    0.8960 O.3       1 SUB1       -0.384
     29 O3C        29.2050   17.5840    1.7190 O.3       1 SUB1       -0.386
     30 O4C        31.4100   16.7430    3.5310 O.3       1 SUB1       -0.340
     31 O5C        29.0420   14.0310    3.8510 O.3       1 SUB1       -0.340
     32 O6C        31.0110   13.2140    5.6280 O.3       1 SUB1       -0.392
     33 C1D        29.2450    9.5910   -0.3540 C.3       1 SUB1        0.185
     34 C2D        27.8620   10.2870   -0.2620 C.3       1 SUB1        0.134
     35 C3D        28.0240   11.7470    0.1990 C.3       1 SUB1        0.114
     36 C4D        28.8320   11.8280    1.5050 C.3       1 SUB1        0.118
     37 C5D        30.1500   11.0580    1.3600 C.3       1 SUB1        0.113
     38 C6D        30.9020   10.9260    2.7140 C.3       1 SUB1        0.073
     39 O1D        29.0150    8.2220   -0.5340 O.3       1 SUB1       -0.365
     40 O2D        27.1240   10.3120   -1.5130 O.3       1 SUB1       -0.384
     41 O3D        26.7720   12.4720    0.3010 O.3       1 SUB1       -0.386
     42 O4D        29.1530   13.2260    1.6560 O.3       1 SUB1       -0.340
     43 O5D        29.9890    9.7440    0.8480 O.3       1 SUB1       -0.341
     44 O6D        32.3110   11.0880    2.4300 O.3       1 SUB1       -0.392
     45 H11        33.1998   21.2040    7.2289 H         1 SUB1        0.095
     46 H21        34.5915   21.3374    9.2338 H         1 SUB1        0.069
     47 H31        33.4498   18.5745    9.8984 H         1 SUB1        0.067
     48 H41        33.2796   21.1710   11.5154 H         1 SUB1        0.077
     49 H61        30.0946   20.8145   11.6505 H         1 SUB1        0.071
     50 H62        29.7219   21.7356   10.1540 H         1 SUB1        0.071
     51 H71        31.0583   21.5093    8.2796 H         1 SUB1        0.030
     52 H81        36.0876   19.5997    8.7417 H         1 SUB1        0.210
     53 H91        35.6755   18.7905   10.4232 H         1 SUB1        0.210
     54 H101       33.0629   19.1074   12.5783 H         1 SUB1        0.213
     55 H111       30.3578   23.1377   11.9368 H         1 SUB1        0.213
     56 H121       31.4071   18.4155    2.4002 H         1 SUB1        0.094
     57 H131       33.3568   19.4309    3.3503 H         1 SUB1        0.067
     58 H141       33.3298   17.2407    5.4911 H         1 SUB1        0.068
     59 H151       32.6750   20.2215    5.6392 H         1 SUB1        0.090
     60 H161       30.9472   17.6937    6.0189 H         1 SUB1        0.065
     61 H171       29.0295   19.2715    6.1366 H         1 SUB1        0.026
     62 H172       30.1534   20.6672    6.0122 H         1 SUB1        0.026
     63 H173       30.1909   19.6106    7.4643 H         1 SUB1        0.026
     64 H181       32.0107   18.7068    7.8630 H         1 SUB1        0.203
     65 H182       33.6271   18.5961    7.5719 H         1 SUB1        0.203
     66 H191       34.9425   17.7711    3.1046 H         1 SUB1        0.210
     67 H201       35.0108   18.5059    6.3875 H         1 SUB1        0.210
     68 H221       27.4289   13.4381    2.7075 H         1 SUB1        0.094
     69 H231       27.5264   15.8847    2.9017 H         1 SUB1        0.067
     70 H241       30.1624   15.7725    1.3009 H         1 SUB1        0.065
     71 H251       29.4978   16.6415    4.1588 H         1 SUB1        0.065
     72 H261       31.0289   14.1472    3.2294 H         1 SUB1        0.065
     73 H271       29.9581   14.9430    6.0274 H         1 SUB1        0.058
     74 H272       31.6689   15.1671    5.5277 H         1 SUB1        0.058
     75 H281       27.2382   16.4769    0.7448 H         1 SUB1        0.210
     76 H291       28.7950   17.6159    0.8625 H         1 SUB1        0.210
     77 H321       30.2188   12.7109    5.4799 H         1 SUB1        0.209
     78 H331       29.8144   10.0033   -1.2000 H         1 SUB1        0.094
     79 H341       27.2627    9.7406    0.4811 H         1 SUB1        0.067
     80 H351       28.6155   12.2558   -0.5764 H         1 SUB1        0.065
     81 H361       28.2511   11.4479    2.3583 H         1 SUB1        0.065
     82 H371       30.7833   11.6246    0.6615 H         1 SUB1        0.065
     83 H381       30.7165    9.9353    3.1546 H         1 SUB1        0.058
     84 H382       30.5647   11.7067    3.4117 H         1 SUB1        0.058
     85 H391       29.8470    7.7679   -0.5976 H         1 SUB1        0.213
     86 H401       26.2754   10.7145   -1.3707 H         1 SUB1        0.210
     87 H411       26.9510   13.3861    0.4877 H         1 SUB1        0.210
     88 H441       32.8063   11.0133    3.2373 H         1 SUB1        0.209
@<TRIPOS>BOND
     1    1   18 1  
     2    1    7 1  
     3    1    2 1  
     4    2    8 1  
     5    2    3 1  
     6    3    9 1  
     7    3    4 1  
     8    4   10 1  
     9    4    5 1  
    10    5    7 2  
    11    5    6 1  
    12    6   11 1  
    13   18   15 1  
    14   15   16 1  
    15   15   14 1  
    16   14   20 1  
    17   14   13 1  
    18   13   19 1  
    19   13   12 1  
    20   12   30 1  
    21   12   21 1  
    22   21   16 1  
    23   16   17 1  
    24   30   25 1  
    25   25   26 1  
    26   25   24 1  
    27   24   29 1  
    28   24   23 1  
    29   23   28 1  
    30   23   22 1  
    31   22   42 1  
    32   22   31 1  
    33   31   26 1  
    34   26   27 1  
    35   27   32 1  
    36   42   36 1  
    37   36   37 1  
    38   36   35 1  
    39   35   41 1  
    40   35   34 1  
    41   34   40 1  
    42   34   33 1  
    43   33   43 1  
    44   33   39 1  
    45   43   37 1  
    46   37   38 1  
    47   38   44 1  
    48    1   45 1  
    49    2   46 1  
    50    3   47 1  
    51    4   48 1  
    52    6   49 1  
    53    6   50 1  
    54    7   51 1  
    55    8   52 1  
    56    9   53 1  
    57   10   54 1  
    58   11   55 1  
    59   12   56 1  
    60   13   57 1  
    61   14   58 1  
    62   15   59 1  
    63   16   60 1  
    64   17   61 1  
    65   17   62 1  
    66   17   63 1  
    67   18   64 1  
    68   18   65 1  
    69   19   66 1  
    70   20   67 1  
    71   22   68 1  
    72   23   69 1  
    73   24   70 1  
    74   25   71 1  
    75   26   72 1  
    76   27   73 1  
    77   27   74 1  
    78   28   75 1  
    79   29   76 1  
    80   32   77 1  
    81   33   78 1  
    82   34   79 1  
    83   35   80 1  
    84   36   81 1  
    85   37   82 1  
    86   38   83 1  
    87   38   84 1  
    88   39   85 1  
    89   40   86 1  
    90   41   87 1  
    91   44   88 1  
@<TRIPOS>SUBSTRUCTURE
     1 SUB1        1 GROUP

