1agm_ligand
  -I-interpret- 

 88 91  0  0  0  0  0  0  0  0999 V2000
   32.9990   20.4720    8.0250 C   0  0  0  0  0
   34.2520   20.3350    8.9340 C   0  0  0  0  0
   33.8790   19.5410   10.2010 C   0  0  0  0  0
   32.8160   20.2990   11.0310 C   0  0  0  0  0
   31.6570   20.7750   10.1590 C   0  0  0  0  0
   30.5110   21.4730   10.8740 C   0  0  0  0  0
   31.8320   20.9610    8.8150 C   0  0  0  0  0
   35.3210   19.6840    8.1870 O   0  0  0  0  0
   35.0670   19.2930   10.9520 O   0  0  0  0  0
   32.3380   19.3820   12.0290 O   0  0  0  0  0
   31.0510   22.6760   11.4800 O   0  0  0  0  0
   31.6500   18.1080    3.4280 C   0  0  0  0  0
   33.1570   18.4000    3.6780 C   0  0  0  0  0
   33.4910   18.2840    5.1820 C   0  0  0  0  0
   32.5430   19.1850    5.9830 C   0  0  0  0  0
   31.0810   18.7360    5.6940 C   0  0  0  0  0
   30.0400   19.6350    6.3750 C   0  0  0  0  0
   32.7980   19.1470    7.4130 N   0  3  0  0  0
   34.0410   17.5150    2.9490 O   0  0  0  0  0
   34.8410   18.6220    5.4600 O   0  0  0  0  0
   30.8430   18.8660    4.3030 O   0  0  0  0  0
   28.3960   13.9480    2.5860 C   0  0  0  0  0
   28.1460   15.4160    2.1230 C   0  0  0  0  0
   29.4980   16.2110    2.0600 C   0  0  0  0  0
   30.1650   16.1320    3.4480 C   0  0  0  0  0
   30.3120   14.6630    3.8850 C   0  0  0  0  0
   30.7570   14.5730    5.3680 C   0  0  0  0  0
   27.4260   15.5580    0.8960 O   0  0  0  0  0
   29.2050   17.5840    1.7190 O   0  0  0  0  0
   31.4100   16.7430    3.5310 O   0  0  0  0  0
   29.0420   14.0310    3.8510 O   0  0  0  0  0
   31.0110   13.2140    5.6280 O   0  0  0  0  0
   29.2450    9.5910   -0.3540 C   0  0  0  0  0
   27.8620   10.2870   -0.2620 C   0  0  0  0  0
   28.0240   11.7470    0.1990 C   0  0  0  0  0
   28.8320   11.8280    1.5050 C   0  0  0  0  0
   30.1500   11.0580    1.3600 C   0  0  0  0  0
   30.9020   10.9260    2.7140 C   0  0  0  0  0
   29.0150    8.2220   -0.5340 O   0  0  0  0  0
   27.1240   10.3120   -1.5130 O   0  0  0  0  0
   26.7720   12.4720    0.3010 O   0  0  0  0  0
   29.1530   13.2260    1.6560 O   0  0  0  0  0
   29.9890    9.7440    0.8480 O   0  0  0  0  0
   32.3110   11.0880    2.4300 O   0  0  0  0  0
   33.1998   21.2040    7.2289 H   0  0  0  0  0
   34.5915   21.3374    9.2338 H   0  0  0  0  0
   33.4498   18.5745    9.8984 H   0  0  0  0  0
   33.2796   21.1710   11.5154 H   0  0  0  0  0
   30.0946   20.8145   11.6505 H   0  0  0  0  0
   29.7219   21.7356   10.1540 H   0  0  0  0  0
   31.0583   21.5093    8.2796 H   0  0  0  0  0
   36.0876   19.5997    8.7417 H   0  0  0  0  0
   35.6755   18.7905   10.4232 H   0  0  0  0  0
   33.0629   19.1074   12.5783 H   0  0  0  0  0
   30.3578   23.1377   11.9368 H   0  0  0  0  0
   31.4071   18.4155    2.4002 H   0  0  0  0  0
   33.3568   19.4309    3.3503 H   0  0  0  0  0
   33.3298   17.2407    5.4911 H   0  0  0  0  0
   32.6750   20.2215    5.6392 H   0  0  0  0  0
   30.9472   17.6937    6.0189 H   0  0  0  0  0
   29.0295   19.2715    6.1366 H   0  0  0  0  0
   30.1534   20.6672    6.0122 H   0  0  0  0  0
   30.1909   19.6106    7.4643 H   0  0  0  0  0
   32.0107   18.7068    7.8630 H   0  0  0  0  0
   33.6271   18.5961    7.5719 H   0  0  0  0  0
   34.9425   17.7711    3.1046 H   0  0  0  0  0
   35.0108   18.5059    6.3875 H   0  0  0  0  0
   27.4289   13.4381    2.7075 H   0  0  0  0  0
   27.5264   15.8847    2.9017 H   0  0  0  0  0
   30.1624   15.7725    1.3009 H   0  0  0  0  0
   29.4978   16.6415    4.1588 H   0  0  0  0  0
   31.0289   14.1472    3.2294 H   0  0  0  0  0
   29.9581   14.9430    6.0274 H   0  0  0  0  0
   31.6689   15.1671    5.5277 H   0  0  0  0  0
   27.2382   16.4769    0.7448 H   0  0  0  0  0
   28.7950   17.6159    0.8625 H   0  0  0  0  0
   30.2188   12.7109    5.4799 H   0  0  0  0  0
   29.8144   10.0033   -1.2000 H   0  0  0  0  0
   27.2627    9.7406    0.4811 H   0  0  0  0  0
   28.6155   12.2558   -0.5764 H   0  0  0  0  0
   28.2511   11.4479    2.3583 H   0  0  0  0  0
   30.7833   11.6246    0.6615 H   0  0  0  0  0
   30.7165    9.9353    3.1546 H   0  0  0  0  0
   30.5647   11.7067    3.4117 H   0  0  0  0  0
   29.8470    7.7679   -0.5976 H   0  0  0  0  0
   26.2754   10.7145   -1.3707 H   0  0  0  0  0
   26.9510   13.3861    0.4877 H   0  0  0  0  0
   32.8063   11.0133    3.2373 H   0  0  0  0  0
  1 18  1  0  0  0
  1  7  1  0  0  0
  1  2  1  0  0  0
  2  8  1  0  0  0
  2  3  1  0  0  0
  3  9  1  0  0  0
  3  4  1  0  0  0
  4 10  1  0  0  0
  4  5  1  0  0  0
  5  7  2  0  0  0
  5  6  1  0  0  0
  6 11  1  0  0  0
 18 15  1  0  0  0
 15 16  1  0  0  0
 15 14  1  0  0  0
 14 20  1  0  0  0
 14 13  1  0  0  0
 13 19  1  0  0  0
 13 12  1  0  0  0
 12 30  1  0  0  0
 12 21  1  0  0  0
 21 16  1  0  0  0
 16 17  1  0  0  0
 30 25  1  0  0  0
 25 26  1  0  0  0
 25 24  1  0  0  0
 24 29  1  0  0  0
 24 23  1  0  0  0
 23 28  1  0  0  0
 23 22  1  0  0  0
 22 42  1  0  0  0
 22 31  1  0  0  0
 31 26  1  0  0  0
 26 27  1  0  0  0
 27 32  1  0  0  0
 42 36  1  0  0  0
 36 37  1  0  0  0
 36 35  1  0  0  0
 35 41  1  0  0  0
 35 34  1  0  0  0
 34 40  1  0  0  0
 34 33  1  0  0  0
 33 43  1  0  0  0
 33 39  1  0  0  0
 43 37  1  0  0  0
 37 38  1  0  0  0
 38 44  1  0  0  0
  1 45  1  0  0  0
  2 46  1  0  0  0
  3 47  1  0  0  0
  4 48  1  0  0  0
  6 49  1  0  0  0
  6 50  1  0  0  0
  7 51  1  0  0  0
  8 52  1  0  0  0
  9 53  1  0  0  0
 10 54  1  0  0  0
 11 55  1  0  0  0
 12 56  1  0  0  0
 13 57  1  0  0  0
 14 58  1  0  0  0
 15 59  1  0  0  0
 16 60  1  0  0  0
 17 61  1  0  0  0
 17 62  1  0  0  0
 17 63  1  0  0  0
 18 64  1  0  0  0
 18 65  1  0  0  0
 19 66  1  0  0  0
 20 67  1  0  0  0
 22 68  1  0  0  0
 23 69  1  0  0  0
 24 70  1  0  0  0
 25 71  1  0  0  0
 26 72  1  0  0  0
 27 73  1  0  0  0
 27 74  1  0  0  0
 28 75  1  0  0  0
 29 76  1  0  0  0
 32 77  1  0  0  0
 33 78  1  0  0  0
 34 79  1  0  0  0
 35 80  1  0  0  0
 36 81  1  0  0  0
 37 82  1  0  0  0
 38 83  1  0  0  0
 38 84  1  0  0  0
 39 85  1  0  0  0
 40 86  1  0  0  0
 41 87  1  0  0  0
 44 88  1  0  0  0
M  END
$$$$
