### 
### Created by X-TOOL on Sun Jun  3 12:43:06 2007
### 

@<TRIPOS>MOLECULE
2hb3_ligand
   79    82     1     0     0
SMALL
GAST_HUCK


@<TRIPOS>ATOM
      1 C11        15.2860   24.3430   19.2370 C.3       1 SUB1        0.091
      2 C12        15.3400   25.1730   17.9460 C.3       1 SUB1       -0.017
      3 O1         18.2810   23.9840   18.6050 O.3       1 SUB1       -0.376
      4 C14        18.0680   23.7320   17.2270 C.3       1 SUB1        0.048
      5 C15        16.7900   25.6890   17.7870 C.3       1 SUB1       -0.010
      6 C16        16.5030   24.8130   20.0740 C.3       1 SUB1        0.004
      7 C2         17.6260   25.0770   16.6300 C.3       1 SUB1       -0.024
      8 C1         17.5880   25.1980   19.0370 C.3       1 SUB1        0.064
      9 O13        15.5440   22.9430   18.9410 O.3       1 SUB1       -0.261
     10 C21        14.5380   22.2580   18.3170 C.2       1 SUB1        0.320
     11 C22        14.0220   20.1580   17.1490 C.3       1 SUB1        0.081
     12 C23        14.8010   19.6400   15.8920 C.3       1 SUB1        0.006
     13 C24        15.1820   20.8310   15.0260 C.ar      1 SUB1       -0.041
     14 C25        14.1900   21.5440   14.3280 C.ar      1 SUB1       -0.060
     15 C26        14.5270   22.6620   13.5120 C.ar      1 SUB1       -0.069
     16 C27        15.8810   23.0860   13.3830 C.ar      1 SUB1       -0.069
     17 C28        16.8580   22.3660   14.0850 C.ar      1 SUB1       -0.069
     18 C29        16.5190   21.2560   14.8940 C.ar      1 SUB1       -0.060
     19 O21        13.4360   22.7150   18.1930 O.2       1 SUB1       -0.377
     20 N21        14.9600   21.0490   17.8850 N.am      1 SUB1       -0.255
     21 C31        13.6620   19.0240   18.1360 C.3       1 SUB1        0.097
     22 C32        12.5810   18.0670   17.5630 C.3       1 SUB1        0.058
     23 C33        10.3020   18.4610   18.6420 C.3       1 SUB1        0.032
     24 C34        10.6550   19.1300   20.0030 C.3       1 SUB1       -0.030
     25 C35         9.6130   18.5880   21.0130 C.3       1 SUB1       -0.061
     26 C36        10.5670   20.6690   19.8890 C.3       1 SUB1       -0.061
     27 O31        14.8140   18.2040   18.4020 O.3       1 SUB1       -0.388
     28 O32        11.7380   19.3090   15.1510 O.2       1 SUB1       -0.151
     29 O33         9.6860   20.2520   16.3360 O.2       1 SUB1       -0.151
     30 N31        11.2830   18.7200   17.5740 N.am      1 SUB1       -0.232
     31 S31        10.6330   19.1580   16.1040 S.o2      1 SUB1        0.068
     32 C41         9.6140   17.8010   15.5420 C.ar      1 SUB1        0.101
     33 C42         8.2340   17.8890   15.7040 C.ar      1 SUB1       -0.042
     34 C43         7.4470   16.8220   15.2520 C.ar      1 SUB1       -0.056
     35 C44         8.0700   15.7080   14.6530 C.ar      1 SUB1       -0.018
     36 C45         9.4550   15.6570   14.5070 C.ar      1 SUB1       -0.056
     37 C46        10.2610   16.7160   14.9550 C.ar      1 SUB1       -0.042
     38 C3          7.1900   14.5760   14.1760 C.3       1 SUB1        0.078
     39 O2          7.1330   13.5880   15.1820 O.3       1 SUB1       -0.382
     40 H          14.3186   24.4585   19.7259 H         1 SUB1        0.065
     41 H          14.6414   26.0080   17.9995 H         1 SUB1        0.030
     42 H          15.0555   24.5636   17.0882 H         1 SUB1        0.030
     43 H          17.3151   22.9589   17.0731 H         1 SUB1        0.056
     44 H          18.9706   23.3571   16.7444 H         1 SUB1        0.056
     45 H          16.6748   26.7607   17.6245 H         1 SUB1        0.033
     46 H          16.8521   24.0312   20.7485 H         1 SUB1        0.032
     47 H          16.2465   25.6545   20.7176 H         1 SUB1        0.032
     48 H          17.0642   24.9720   15.7019 H         1 SUB1        0.029
     49 H          18.4610   25.7066   16.3226 H         1 SUB1        0.029
     50 H          18.2906   25.9258   19.4430 H         1 SUB1        0.060
     51 H          13.1033   20.6362   16.8093 H         1 SUB1        0.060
     52 H          14.1711   18.9562   15.3231 H         1 SUB1        0.045
     53 H          15.6998   19.1100   16.2071 H         1 SUB1        0.045
     54 H          13.1478   21.2362   14.4129 H         1 SUB1        0.056
     55 H          13.7408   23.1986   12.9809 H         1 SUB1        0.060
     56 H          16.1479   23.9400   12.7605 H         1 SUB1        0.056
     57 H          17.9022   22.6683   14.0057 H         1 SUB1        0.060
     58 H          17.3060   20.7200   15.4246 H         1 SUB1        0.056
     59 H          15.9182   20.7481   18.0628 H         1 SUB1        0.187
     60 H          13.2931   19.5184   19.0347 H         1 SUB1        0.063
     61 H          12.5355   17.1682   18.1779 H         1 SUB1        0.050
     62 H          12.8416   17.8044   16.5377 H         1 SUB1        0.050
     63 H           9.3499   18.8782   18.3142 H         1 SUB1        0.048
     64 H          10.2812   17.3838   18.8073 H         1 SUB1        0.048
     65 H          11.6729   18.9000   20.3179 H         1 SUB1        0.031
     66 H           8.6113   18.8621   20.6820 H         1 SUB1        0.023
     67 H           9.6941   17.5025   21.0694 H         1 SUB1        0.023
     68 H           9.8030   19.0194   21.9958 H         1 SUB1        0.023
     69 H          11.2684   21.0166   19.1305 H         1 SUB1        0.023
     70 H           9.5536   20.9537   19.6062 H         1 SUB1        0.023
     71 H          10.8171   21.1181   20.8501 H         1 SUB1        0.023
     72 H          15.5178   18.7496   18.7606 H         1 SUB1        0.210
     73 H           7.7789   18.7633   16.1693 H         1 SUB1        0.062
     74 H           6.3630   16.8527   15.3623 H         1 SUB1        0.056
     75 H           9.9170   14.7868   14.0406 H         1 SUB1        0.056
     76 H          11.3454   16.6902   14.8481 H         1 SUB1        0.062
     77 H           7.6019   14.1485   13.2619 H         1 SUB1        0.072
     78 H           6.1874   14.9501   13.9690 H         1 SUB1        0.072
     79 H           6.5754   12.8643   14.8870 H         1 SUB1        0.213
@<TRIPOS>BOND
     1    1    2 1  
     2    1    6 1  
     3    9    1 1  
     4    2    5 1  
     5    3    4 1  
     6    8    3 1  
     7    7    4 1  
     8    5    7 1  
     9    8    5 1  
    10    6    8 1  
    11   10    9 1  
    12   10   19 2  
    13   20   10 am 
    14   11   12 1  
    15   11   20 1  
    16   21   11 1  
    17   12   13 1  
    18   13   14 ar 
    19   13   18 ar 
    20   14   15 ar 
    21   15   16 ar 
    22   17   16 ar 
    23   18   17 ar 
    24   22   21 1  
    25   21   27 1  
    26   30   22 1  
    27   23   24 1  
    28   30   23 1  
    29   24   25 1  
    30   24   26 1  
    31   31   28 2  
    32   31   29 2  
    33   30   31 1  
    34   31   32 1  
    35   32   33 ar 
    36   32   37 ar 
    37   33   34 ar 
    38   34   35 ar 
    39   35   36 ar 
    40   35   38 1  
    41   36   37 ar 
    42   38   39 1  
    43    1   40 1  
    44    2   41 1  
    45    2   42 1  
    46    4   43 1  
    47    4   44 1  
    48    5   45 1  
    49    6   46 1  
    50    6   47 1  
    51    7   48 1  
    52    7   49 1  
    53    8   50 1  
    54   11   51 1  
    55   12   52 1  
    56   12   53 1  
    57   14   54 1  
    58   15   55 1  
    59   16   56 1  
    60   17   57 1  
    61   18   58 1  
    62   20   59 1  
    63   21   60 1  
    64   22   61 1  
    65   22   62 1  
    66   23   63 1  
    67   23   64 1  
    68   24   65 1  
    69   25   66 1  
    70   25   67 1  
    71   25   68 1  
    72   26   69 1  
    73   26   70 1  
    74   26   71 1  
    75   27   72 1  
    76   33   73 1  
    77   34   74 1  
    78   36   75 1  
    79   37   76 1  
    80   38   77 1  
    81   38   78 1  
    82   39   79 1  
@<TRIPOS>SUBSTRUCTURE
     1 SUB1        1 GROUP

