### 
### Created by X-TOOL on Mon Oct 24 23:21:53 2005
### 

@<TRIPOS>MOLECULE
1fh8_ligand
   37    38     1     0     0
SMALL
GAST_HUCK


@<TRIPOS>ATOM
      1 C1        -62.5840   16.9810   57.3620 C.3       1 SUB1        0.188
      2 C2        -61.5230   16.8090   58.4660 C.3       1 SUB1        0.134
      3 C3        -60.9540   15.3920   58.4700 C.3       1 SUB1        0.114
      4 C4        -62.0830   14.3440   58.4220 C.3       1 SUB1        0.107
      5 C5        -63.0670   14.6550   57.2980 C.3       1 SUB1        0.079
      6 O2        -60.4710   17.7510   58.2810 O.3       1 SUB1       -0.384
      7 O3        -60.1920   15.1950   59.6520 O.3       1 SUB1       -0.386
      8 O4        -61.5430   13.0350   58.2460 O.3       1 SUB1       -0.387
      9 O5        -63.6040   15.9790   57.4720 O.3       1 SUB1       -0.346
     10 N1        -65.0070   20.4660   54.4730 N.4       1 SUB1        0.229
     11 C2        -65.9520   19.9430   55.5110 C.3       1 SUB1       -0.005
     12 C3        -65.0790   19.5820   56.7600 C.3       1 SUB1        0.121
     13 O3        -65.8800   19.0610   57.8140 O.3       1 SUB1       -0.384
     14 C4        -63.9760   18.5830   56.3350 C.3       1 SUB1        0.097
     15 O4        -63.2060   18.2750   57.4890 O.3       1 SUB1       -0.343
     16 C5        -63.1180   19.1780   55.2020 C.3       1 SUB1        0.016
     17 C6        -64.0450   19.4720   54.0610 C.3       1 SUB1       -0.031
     18 H11       -62.0973   16.8997   56.3789 H         1 SUB1        0.094
     19 H21       -61.9991   16.9969   59.4396 H         1 SUB1        0.067
     20 H31       -60.3057   15.2633   57.5908 H         1 SUB1        0.065
     21 H41       -62.6250   14.3739   59.3787 H         1 SUB1        0.064
     22 H51       -63.8876   13.9227   57.3181 H         1 SUB1        0.059
     23 H52       -62.5467   14.5963   56.3306 H         1 SUB1        0.059
     24 H61       -60.8252   18.6316   58.3214 H         1 SUB1        0.210
     25 H71       -59.8374   14.3137   59.6556 H         1 SUB1        0.210
     26 H81       -60.9639   12.8324   58.9713 H         1 SUB1        0.210
     27 H101      -65.5384   20.7570   53.6674 H         1 SUB1        0.201
     28 H102      -64.5129   21.2579   54.8535 H         1 SUB1        0.201
     29 H111      -66.4704   19.0477   55.1373 H         1 SUB1        0.084
     30 H112      -66.6926   20.7126   55.7739 H         1 SUB1        0.084
     31 H121      -64.5944   20.5000   57.1238 H         1 SUB1        0.067
     32 H131      -65.3310   18.8810   58.5682 H         1 SUB1        0.210
     33 H141      -64.4461   17.6602   55.9644 H         1 SUB1        0.063
     34 H161      -62.3507   18.4546   54.8890 H         1 SUB1        0.034
     35 H162      -62.6318   20.1041   55.5424 H         1 SUB1        0.034
     36 H171      -63.4666   19.8523   53.2061 H         1 SUB1        0.082
     37 H172      -64.5705   18.5512   53.7677 H         1 SUB1        0.082
@<TRIPOS>BOND
     1    1    9 1  
     2    1    2 1  
     3    2    6 1  
     4    2    3 1  
     5    3    7 1  
     6    3    4 1  
     7    4    8 1  
     8    5    4 1  
     9    9    5 1  
    10   17   10 1  
    11   11   10 1  
    12   12   11 1  
    13   14   12 1  
    14   12   13 1  
    15   14   16 1  
    16   15   14 1  
    17   16   17 1  
    18   15    1 1  
    19    1   18 1  
    20    2   19 1  
    21    3   20 1  
    22    4   21 1  
    23    5   22 1  
    24    5   23 1  
    25    6   24 1  
    26    7   25 1  
    27    8   26 1  
    28   10   27 1  
    29   10   28 1  
    30   11   29 1  
    31   11   30 1  
    32   12   31 1  
    33   13   32 1  
    34   14   33 1  
    35   16   34 1  
    36   16   35 1  
    37   17   36 1  
    38   17   37 1  
@<TRIPOS>SUBSTRUCTURE
     1 SUB1        1 GROUP

