### 
### Created by X-TOOL on Tue Oct 25 01:42:12 2005
### 

@<TRIPOS>MOLECULE
1bnw_ligand
   29    30     1     0     0
SMALL
GAST_HUCK


@<TRIPOS>ATOM
      1 H41        -2.5520    5.8309   13.0187 H         1 SUB1        0.067
      2 H42        -2.0377    5.7567   14.7382 H         1 SUB1        0.067
      3 C3         -5.2720    2.0930   15.8300 C.2       1 SUB1        0.162
      4 C9         -2.5880    6.3460   13.9900 C.3       1 SUB1        0.072
      5 C10        -2.0720    7.6960   13.8940 C.2       1 SUB1        0.031
      6 C11        -2.1060    8.4440   12.7330 C.2       1 SUB1       -0.080
      7 C12        -1.6140    9.7130   12.9390 C.2       1 SUB1       -0.093
      8 C13        -1.1930    9.9560   14.2360 C.2       1 SUB1       -0.020
      9 O1A        -5.4750    1.0740   18.1580 O.2       1 SUB1       -0.150
     10 O2A        -7.3150    0.9750   16.7440 O.2       1 SUB1       -0.150
     11 N21        -5.3990   -0.4720   16.2890 N.am      1 SUB1       -0.261
     12 S1         -5.8990    0.8280   16.8150 S.o2      1 SUB1        0.075
     13 C4         -4.0400    2.1040   15.2520 C.2       1 SUB1       -0.050
     14 C5         -3.8220    3.2650   14.5570 C.2       1 SUB1       -0.050
     15 C6         -4.8860    4.1360   14.6030 C.2       1 SUB1        0.162
     16 S2         -6.1780    3.5170   15.5160 S.3       1 SUB1        0.011
     17 S7         -5.0220    5.6980   13.8580 S.o2      1 SUB1        0.079
     18 O3B        -4.9270    5.4990   12.4420 O.2       1 SUB1       -0.150
     19 O4B        -6.3080    6.2440   14.1910 O.2       1 SUB1       -0.150
     20 N8         -3.9630    6.5960   14.4120 N.am      1 SUB1       -0.234
     21 S14        -1.4130    8.5610   15.2460 S.3       1 SUB1       -0.043
     22 H61        -2.4750    8.0765   11.7766 H         1 SUB1        0.028
     23 H71        -1.5604   10.4616   12.1499 H         1 SUB1        0.037
     24 H81        -0.7768   10.9021   14.5788 H         1 SUB1        0.060
     25 H111       -5.6630   -1.3336   16.7408 H         1 SUB1        0.163
     26 H131       -3.3182    1.2925   15.3317 H         1 SUB1        0.042
     27 H141       -2.8979    3.4771   14.0213 H         1 SUB1        0.042
     28 H201       -4.1871    7.3369   15.0451 H         1 SUB1        0.170
     29 H112       -4.8013   -0.4904   15.4875 H         1 SUB1        0.163
@<TRIPOS>BOND
     1    3   16 1  
     2    3   13 2  
     3    3   12 1  
     4   12    9 2  
     5   12   10 2  
     6   12   11 1  
     7   13   14 1  
     8   14   15 2  
     9   15   17 1  
    10   15   16 1  
    11   17   20 1  
    12   17   19 2  
    13   17   18 2  
    14   20    4 1  
    15    4    5 1  
    16    5   21 1  
    17    5    6 2  
    18    6    7 1  
    19    7    8 2  
    20    8   21 1  
    21    4    1 1  
    22    4    2 1  
    23    6   22 1  
    24    7   23 1  
    25    8   24 1  
    26   11   25 1  
    27   13   26 1  
    28   14   27 1  
    29   20   28 1  
    30   11   29 1  
@<TRIPOS>SUBSTRUCTURE
     1 SUB1        1 GROUP

