1m7d_ligand
  -I-interpret- 

 72 74  0  0  0  0  0  0  0  0999 V2000
   -9.9230   24.7930   33.5390 C   0  0  0  0  0
  -10.8210   25.9400   33.0460 C   0  0  0  0  0
  -11.9540   26.1010   33.8900 O   0  0  0  0  0
  -11.2650   25.6570   31.6060 C   0  0  0  0  0
  -12.1460   26.6790   31.1770 O   0  0  0  0  0
  -11.9580   24.2910   31.5120 C   0  0  0  0  0
  -12.3000   24.0050   30.1620 O   0  0  0  0  0
  -11.0370   23.1970   32.0610 C   0  0  0  0  0
  -10.6270   23.5280   33.4100 O   0  0  0  0  0
  -11.7620   21.8530   32.0480 C   0  0  0  0  0
   -6.3260   21.8850   32.4770 C   0  0  0  0  0
   -7.4990   22.8000   32.1440 C   0  0  0  0  0
   -7.6750   23.8680   33.2260 C   0  0  0  0  0
   -8.6780   24.8160   32.7980 O   0  0  0  0  0
   -6.3390   24.5970   33.4570 C   0  0  0  0  0
   -6.4660   25.5610   34.4830 O   0  0  0  0  0
   -5.2490   23.6000   33.8060 C   0  0  0  0  0
   -5.1290   22.6540   32.7300 O   0  0  0  0  0
   -3.9190   24.3040   34.0400 C   0  0  0  0  0
   -5.9780   17.3600   33.6890 C   0  0  0  0  0
   -6.7820   18.6400   33.4380 C   0  0  0  0  0
   -5.8830   19.8580   33.6740 C   0  0  0  0  0
   -5.1630   19.7990   35.0330 C   0  0  0  0  0
   -4.4700   18.4510   35.1980 C   0  0  0  0  0
   -3.7940   18.3190   36.5520 C   0  0  0  0  0
   -8.4920   19.1230   31.7650 C   0  0  0  0  0
   -8.8540   19.0840   30.2900 C   0  0  0  0  0
   -6.0730   14.9770   33.6260 C   0  0  0  0  0
   -7.2760   18.6610   32.0690 N   0  0  0  0  0
   -6.7820   16.2040   33.4690 O   0  0  0  0  0
   -6.6710   21.0510   33.5870 O   0  0  0  0  0
   -4.1950   20.8300   35.0950 O   0  0  0  0  0
   -5.4180   17.3910   35.0140 O   0  0  0  0  0
   -4.7510   18.4010   37.5930 O   0  0  0  0  0
   -9.2830   19.5510   32.6020 O   0  0  0  0  0
   -9.6808   24.9522   34.6001 H   0  0  0  0  0
  -10.2415   26.8749   33.0467 H   0  0  0  0  0
  -12.4911   26.8138   33.5646 H   0  0  0  0  0
  -10.3818   25.6366   30.9506 H   0  0  0  0  0
  -12.9064   26.6996   31.7461 H   0  0  0  0  0
  -12.8731   24.3066   32.1221 H   0  0  0  0  0
  -12.8889   24.6758   29.8368 H   0  0  0  0  0
  -10.1470   23.1138   31.4200 H   0  0  0  0  0
  -11.0885   21.0789   32.4445 H   0  0  0  0  0
  -12.6599   21.9050   32.6812 H   0  0  0  0  0
  -12.0441   21.5889   31.0181 H   0  0  0  0  0
   -6.1368   21.2261   31.6168 H   0  0  0  0  0
   -7.3126   23.3019   31.1831 H   0  0  0  0  0
   -8.4230   22.2062   32.0840 H   0  0  0  0  0
   -7.9854   23.3960   34.1698 H   0  0  0  0  0
   -6.0457   25.1047   32.5263 H   0  0  0  0  0
   -7.1256   26.1988   34.2368 H   0  0  0  0  0
   -5.5202   23.0717   34.7319 H   0  0  0  0  0
   -3.1553   23.5528   34.2898 H   0  0  0  0  0
   -3.6117   24.8378   33.1287 H   0  0  0  0  0
   -4.0116   25.0124   34.8764 H   0  0  0  0  0
   -5.1366   17.3302   32.9812 H   0  0  0  0  0
   -7.6438   18.6753   34.1206 H   0  0  0  0  0
   -5.1240   19.8937   32.8787 H   0  0  0  0  0
   -5.8898   19.9459   35.8455 H   0  0  0  0  0
   -3.7030   18.3550   34.4155 H   0  0  0  0  0
   -3.2862   17.3454   36.6172 H   0  0  0  0  0
   -3.0643   19.1319   36.6805 H   0  0  0  0  0
   -9.8697   19.4857   30.1598 H   0  0  0  0  0
   -8.1484   19.7008   29.7142 H   0  0  0  0  0
   -8.8296   18.0466   29.9251 H   0  0  0  0  0
   -6.7613   14.1393   33.4402 H   0  0  0  0  0
   -5.2450   14.9271   32.9036 H   0  0  0  0  0
   -5.6817   14.8984   34.6510 H   0  0  0  0  0
   -6.6884   18.3199   31.3352 H   0  0  0  0  0
   -4.6234   21.6717   34.9925 H   0  0  0  0  0
   -5.3855   17.7009   37.4942 H   0  0  0  0  0
  1  2  1  0  0  0
  1  9  1  0  0  0
  2  3  1  0  0  0
  2  4  1  0  0  0
  4  5  1  0  0  0
  4  6  1  0  0  0
  6  7  1  0  0  0
  8  6  1  0  0  0
  9  8  1  0  0  0
  8 10  1  0  0  0
 11 12  1  0  0  0
 11 18  1  0  0  0
 12 13  1  0  0  0
 13 14  1  0  0  0
 13 15  1  0  0  0
 14  1  1  0  0  0
 15 16  1  0  0  0
 17 15  1  0  0  0
 18 17  1  0  0  0
 17 19  1  0  0  0
 21 20  1  0  0  0
 20 30  1  0  0  0
 20 33  1  0  0  0
 22 21  1  0  0  0
 21 29  1  0  0  0
 22 23  1  0  0  0
 31 22  1  0  0  0
 23 24  1  0  0  0
 23 32  1  0  0  0
 24 25  1  0  0  0
 24 33  1  0  0  0
 25 34  1  0  0  0
 26 27  1  0  0  0
 29 26  1  0  0  0
 26 35  2  0  0  0
 31 11  1  0  0  0
 30 28  1  0  0  0
  1 36  1  0  0  0
  2 37  1  0  0  0
  3 38  1  0  0  0
  4 39  1  0  0  0
  5 40  1  0  0  0
  6 41  1  0  0  0
  7 42  1  0  0  0
  8 43  1  0  0  0
 10 44  1  0  0  0
 10 45  1  0  0  0
 10 46  1  0  0  0
 11 47  1  0  0  0
 12 48  1  0  0  0
 12 49  1  0  0  0
 13 50  1  0  0  0
 15 51  1  0  0  0
 16 52  1  0  0  0
 17 53  1  0  0  0
 19 54  1  0  0  0
 19 55  1  0  0  0
 19 56  1  0  0  0
 20 57  1  0  0  0
 21 58  1  0  0  0
 22 59  1  0  0  0
 23 60  1  0  0  0
 24 61  1  0  0  0
 25 62  1  0  0  0
 25 63  1  0  0  0
 27 64  1  0  0  0
 27 65  1  0  0  0
 27 66  1  0  0  0
 28 67  1  0  0  0
 28 68  1  0  0  0
 28 69  1  0  0  0
 29 70  1  0  0  0
 32 71  1  0  0  0
 34 72  1  0  0  0
M  END
$$$$
