### 
### Created by X-TOOL on Tue Oct 25 01:55:23 2005
### 

@<TRIPOS>MOLECULE
1m7d_ligand
   72    74     1     0     0
SMALL
GAST_HUCK


@<TRIPOS>ATOM
      1 C1         -9.9230   24.7930   33.5390 C.3       1 SUB1        0.188
      2 C2        -10.8210   25.9400   33.0460 C.3       1 SUB1        0.134
      3 O2        -11.9540   26.1010   33.8900 O.3       1 SUB1       -0.384
      4 C3        -11.2650   25.6570   31.6060 C.3       1 SUB1        0.114
      5 O3        -12.1460   26.6790   31.1770 O.3       1 SUB1       -0.386
      6 C4        -11.9580   24.2910   31.5120 C.3       1 SUB1        0.109
      7 O4        -12.3000   24.0050   30.1620 O.3       1 SUB1       -0.387
      8 C5        -11.0370   23.1970   32.0610 C.3       1 SUB1        0.087
      9 O5        -10.6270   23.5280   33.4100 O.3       1 SUB1       -0.343
     10 C6        -11.7620   21.8530   32.0480 C.3       1 SUB1       -0.036
     11 C1         -6.3260   21.8850   32.4770 C.3       1 SUB1        0.163
     12 C2         -7.4990   22.8000   32.1440 C.3       1 SUB1        0.027
     13 C3         -7.6750   23.8680   33.2260 C.3       1 SUB1        0.095
     14 O3         -8.6780   24.8160   32.7980 O.3       1 SUB1       -0.343
     15 C4         -6.3390   24.5970   33.4570 C.3       1 SUB1        0.107
     16 O4         -6.4660   25.5610   34.4830 O.3       1 SUB1       -0.387
     17 C5         -5.2490   23.6000   33.8060 C.3       1 SUB1        0.087
     18 O5         -5.1290   22.6540   32.7300 O.3       1 SUB1       -0.346
     19 C6         -3.9190   24.3040   34.0400 C.3       1 SUB1       -0.036
     20 C1         -5.9780   17.3600   33.6890 C.3       1 SUB1        0.184
     21 C2         -6.7820   18.6400   33.4380 C.3       1 SUB1        0.121
     22 C3         -5.8830   19.8580   33.6740 C.3       1 SUB1        0.117
     23 C4         -5.1630   19.7990   35.0330 C.3       1 SUB1        0.112
     24 C5         -4.4700   18.4510   35.1980 C.3       1 SUB1        0.113
     25 C6         -3.7940   18.3190   36.5520 C.3       1 SUB1        0.073
     26 C7         -8.4920   19.1230   31.7650 C.2       1 SUB1        0.173
     27 C8         -8.8540   19.0840   30.2900 C.3       1 SUB1        0.026
     28 CM         -6.0730   14.9770   33.6260 C.3       1 SUB1        0.040
     29 N2         -7.2760   18.6610   32.0690 N.am      1 SUB1       -0.277
     30 O1         -6.7820   16.2040   33.4690 O.3       1 SUB1       -0.352
     31 O3         -6.6710   21.0510   33.5870 O.3       1 SUB1       -0.343
     32 O4         -4.1950   20.8300   35.0950 O.3       1 SUB1       -0.387
     33 O5         -5.4180   17.3910   35.0140 O.3       1 SUB1       -0.341
     34 O6         -4.7510   18.4010   37.5930 O.3       1 SUB1       -0.392
     35 O7         -9.2830   19.5510   32.6020 O.2       1 SUB1       -0.397
     36 H11        -9.6808   24.9522   34.6001 H         1 SUB1        0.094
     37 H21       -10.2415   26.8749   33.0467 H         1 SUB1        0.067
     38 H31       -12.4911   26.8138   33.5646 H         1 SUB1        0.210
     39 H41       -10.3818   25.6366   30.9506 H         1 SUB1        0.065
     40 H51       -12.9064   26.6996   31.7461 H         1 SUB1        0.210
     41 H61       -12.8731   24.3066   32.1221 H         1 SUB1        0.065
     42 H71       -12.8889   24.6758   29.8368 H         1 SUB1        0.210
     43 H81       -10.1470   23.1138   31.4200 H         1 SUB1        0.062
     44 H101      -11.0885   21.0789   32.4445 H         1 SUB1        0.025
     45 H102      -12.6599   21.9050   32.6812 H         1 SUB1        0.025
     46 H103      -12.0441   21.5889   31.0181 H         1 SUB1        0.025
     47 H111       -6.1368   21.2261   31.6168 H         1 SUB1        0.091
     48 H121       -7.3126   23.3019   31.1831 H         1 SUB1        0.034
     49 H122       -8.4230   22.2062   32.0840 H         1 SUB1        0.034
     50 H131       -7.9854   23.3960   34.1698 H         1 SUB1        0.062
     51 H151       -6.0457   25.1047   32.5263 H         1 SUB1        0.064
     52 H161       -7.1256   26.1988   34.2368 H         1 SUB1        0.210
     53 H171       -5.5202   23.0717   34.7319 H         1 SUB1        0.062
     54 H191       -3.1553   23.5528   34.2898 H         1 SUB1        0.025
     55 H192       -3.6117   24.8378   33.1287 H         1 SUB1        0.025
     56 H193       -4.0116   25.0124   34.8764 H         1 SUB1        0.025
     57 H201       -5.1366   17.3302   32.9812 H         1 SUB1        0.093
     58 H211       -7.6438   18.6753   34.1206 H         1 SUB1        0.063
     59 H221       -5.1240   19.8937   32.8787 H         1 SUB1        0.065
     60 H231       -5.8898   19.9459   35.8455 H         1 SUB1        0.065
     61 H241       -3.7030   18.3550   34.4155 H         1 SUB1        0.065
     62 H251       -3.2862   17.3454   36.6172 H         1 SUB1        0.058
     63 H252       -3.0643   19.1319   36.6805 H         1 SUB1        0.058
     64 H271       -9.8697   19.4857   30.1598 H         1 SUB1        0.047
     65 H272       -8.1484   19.7008   29.7142 H         1 SUB1        0.047
     66 H273       -8.8296   18.0466   29.9251 H         1 SUB1        0.047
     67 H281       -6.7613   14.1393   33.4402 H         1 SUB1        0.052
     68 H282       -5.2450   14.9271   32.9036 H         1 SUB1        0.052
     69 H283       -5.6817   14.8984   34.6510 H         1 SUB1        0.052
     70 H291       -6.6884   18.3199   31.3352 H         1 SUB1        0.186
     71 H321       -4.6234   21.6717   34.9925 H         1 SUB1        0.210
     72 H341       -5.3855   17.7009   37.4942 H         1 SUB1        0.209
@<TRIPOS>BOND
     1    1    2 1  
     2    1    9 1  
     3    2    3 1  
     4    2    4 1  
     5    4    5 1  
     6    4    6 1  
     7    6    7 1  
     8    8    6 1  
     9    9    8 1  
    10    8   10 1  
    11   11   12 1  
    12   11   18 1  
    13   12   13 1  
    14   13   14 1  
    15   13   15 1  
    16   14    1 1  
    17   15   16 1  
    18   17   15 1  
    19   18   17 1  
    20   17   19 1  
    21   21   20 1  
    22   20   30 1  
    23   20   33 1  
    24   22   21 1  
    25   21   29 1  
    26   22   23 1  
    27   31   22 1  
    28   23   24 1  
    29   23   32 1  
    30   24   25 1  
    31   24   33 1  
    32   25   34 1  
    33   26   27 1  
    34   29   26 am 
    35   26   35 2  
    36   31   11 1  
    37   30   28 1  
    38    1   36 1  
    39    2   37 1  
    40    3   38 1  
    41    4   39 1  
    42    5   40 1  
    43    6   41 1  
    44    7   42 1  
    45    8   43 1  
    46   10   44 1  
    47   10   45 1  
    48   10   46 1  
    49   11   47 1  
    50   12   48 1  
    51   12   49 1  
    52   13   50 1  
    53   15   51 1  
    54   16   52 1  
    55   17   53 1  
    56   19   54 1  
    57   19   55 1  
    58   19   56 1  
    59   20   57 1  
    60   21   58 1  
    61   22   59 1  
    62   23   60 1  
    63   24   61 1  
    64   25   62 1  
    65   25   63 1  
    66   27   64 1  
    67   27   65 1  
    68   27   66 1  
    69   28   67 1  
    70   28   68 1  
    71   28   69 1  
    72   29   70 1  
    73   32   71 1  
    74   34   72 1  
@<TRIPOS>SUBSTRUCTURE
     1 SUB1        1 GROUP

