### 
### Created by X-TOOL on Tue Oct 25 00:59:54 2005
### 

@<TRIPOS>MOLECULE
2bqv_ligand
   83    86     1     0     0
SMALL
GAST_HUCK


@<TRIPOS>ATOM
      1 C23        11.2050   23.5680    3.2120 C.ar      1 SUB1       -0.041
      2 C24        10.9580   24.6870    2.3360 C.ar      1 SUB1       -0.060
      3 C25         9.6500   24.9000    1.7910 C.ar      1 SUB1       -0.069
      4 C26         8.5800   24.0050    2.1130 C.ar      1 SUB1       -0.069
      5 C27         8.8150   22.8880    2.9790 C.ar      1 SUB1       -0.069
      6 C28        10.1190   22.6700    3.5280 C.ar      1 SUB1       -0.060
      7 C33        16.3190   22.5150    8.1320 C.ar      1 SUB1       -0.024
      8 C34        17.6310   22.0230    8.4580 C.ar      1 SUB1       -0.059
      9 C35        17.7960   20.9570    9.3990 C.ar      1 SUB1       -0.068
     10 C36        16.6460   20.3730   10.0250 C.ar      1 SUB1       -0.069
     11 C37        15.3320   20.8570    9.7080 C.ar      1 SUB1       -0.068
     12 C38        15.1680   21.9240    8.7650 C.ar      1 SUB1       -0.059
     13 C32        16.2050   23.6620    7.1150 C.3       1 SUB1        0.064
     14 C7         19.9980   18.2300    7.3330 C.3       1 SUB1        0.066
     15 C4         13.9810   23.7580    6.1230 C.3       1 SUB1        0.071
     16 O3         19.1030   20.1170    5.4440 O.2       1 SUB1       -0.377
     17 N1         17.0530   19.1780    5.4240 N.am      1 SUB1       -0.241
     18 C22        12.6090   23.3500    3.8330 C.3       1 SUB1        0.019
     19 O6         13.4140   25.5240    4.5570 O.3       1 SUB1       -0.381
     20 O8         18.6870   18.2930    6.7790 O.3       1 SUB1       -0.267
     21 C10        11.6220   24.5080    5.9080 C.2       1 SUB1        0.233
     22 O11        11.2890   23.6920    6.7900 O.2       1 SUB1       -0.341
     23 N12        10.8690   25.5990    5.6880 N.am      1 SUB1       -0.268
     24 C51         9.6490   25.9060    6.4570 C.3       1 SUB1        0.101
     25 C52         9.8750   26.7030    7.7130 C.ar      1 SUB1       -0.013
     26 C57         8.7640   27.5470    7.9310 C.ar      1 SUB1       -0.036
     27 C53        10.9930   26.6900    8.6100 C.ar      1 SUB1       -0.065
     28 C54        10.9550   27.5670    9.7440 C.ar      1 SUB1       -0.075
     29 C55         9.8200   28.4300    9.9660 C.ar      1 SUB1       -0.075
     30 C59         8.5610   26.7340    5.6850 C.3       1 SUB1        0.095
     31 O60         9.1140   27.8490    4.9750 O.3       1 SUB1       -0.386
     32 C30        18.3210   19.2340    5.8690 C.2       1 SUB1        0.322
     33 C56         8.7080   28.4260    9.0550 C.ar      1 SUB1       -0.067
     34 C58         7.7270   27.3590    6.8320 C.3       1 SUB1        0.009
     35 C41        16.4460   20.0700    4.4420 C.3       1 SUB1        0.137
     36 C42        15.8860   19.1680    3.2980 C.3       1 SUB1       -0.006
     37 C43        16.9700   18.2640    2.6470 C.3       1 SUB1       -0.058
     38 C1         12.9340   24.2830    5.0580 C.3       1 SUB1        0.172
     39 C44        15.2330   19.9660    2.1590 C.3       1 SUB1       -0.058
     40 C45        15.4440   21.0340    5.1590 C.2       1 SUB1        0.219
     41 N24        15.4020   23.4710    5.8620 N.pl3     1 SUB1       -0.250
     42 O46        14.4470   20.5980    5.7490 O.2       1 SUB1       -0.393
     43 N47        15.7440   22.3610    5.0620 N.am      1 SUB1       -0.203
     44 H21        11.7640   25.3686    2.0893 H         1 SUB1        0.056
     45 H31         9.4700   25.7420    1.1324 H         1 SUB1        0.060
     46 H41         7.5913   24.1725    1.7013 H         1 SUB1        0.056
     47 H51         8.0054   22.2080    3.2185 H         1 SUB1        0.060
     48 H61        10.2924   21.8255    4.1851 H         1 SUB1        0.056
     49 H81        18.5023   22.4634    7.9869 H         1 SUB1        0.056
     50 H91        18.7884   20.5921    9.6378 H         1 SUB1        0.060
     51 H101       16.7686   19.5657   10.7379 H         1 SUB1        0.056
     52 H111       14.4631   20.4151   10.1822 H         1 SUB1        0.060
     53 H121       14.1747   22.2873    8.5275 H         1 SUB1        0.056
     54 H131       17.2292   23.9128    6.8017 H         1 SUB1        0.064
     55 H132       15.7647   24.5176    7.6480 H         1 SUB1        0.064
     56 H141       20.0566   17.3909    8.0418 H         1 SUB1        0.058
     57 H142       20.2194   19.1704    7.8590 H         1 SUB1        0.058
     58 H143       20.7303   18.0800    6.5260 H         1 SUB1        0.058
     59 H151       13.5601   22.8155    6.5031 H         1 SUB1        0.050
     60 H152       13.9799   24.5101    6.9257 H         1 SUB1        0.050
     61 H171       16.4717   18.4573    5.8017 H         1 SUB1        0.190
     62 H181       13.3620   23.5335    3.0524 H         1 SUB1        0.044
     63 H182       12.6770   22.3050    4.1698 H         1 SUB1        0.044
     64 H191       13.6157   26.1011    5.2842 H         1 SUB1        0.208
     65 H231       11.1497   26.2335    4.9678 H         1 SUB1        0.189
     66 H241        9.2114   24.9361    6.7359 H         1 SUB1        0.073
     67 H271       11.8410   26.0374    8.4365 H         1 SUB1        0.054
     68 H281       11.7858   27.5818   10.4402 H         1 SUB1        0.054
     69 H291        9.8058   29.0874   10.8278 H         1 SUB1        0.054
     70 H301        7.9659   26.0946    5.0164 H         1 SUB1        0.066
     71 H311        8.4176   28.3146    4.5270 H         1 SUB1        0.210
     72 H331        7.8521   29.0713    9.2165 H         1 SUB1        0.054
     73 H341        7.2919   28.3222    6.5274 H         1 SUB1        0.044
     74 H342        6.9243   26.6798    7.1551 H         1 SUB1        0.044
     75 H351       17.2321   20.7017    4.0027 H         1 SUB1        0.080
     76 H361       15.1197   18.5188    3.7466 H         1 SUB1        0.034
     77 H371       16.5120   17.6567    1.8524 H         1 SUB1        0.023
     78 H372       17.4026   17.6017    3.4114 H         1 SUB1        0.023
     79 H373       17.7625   18.8938    2.2165 H         1 SUB1        0.023
     80 H391       14.4545   20.6243    2.5720 H         1 SUB1        0.023
     81 H392       14.7801   19.2707    1.4369 H         1 SUB1        0.023
     82 H393       15.9969   20.5744    1.6527 H         1 SUB1        0.023
     83 H431       16.3150   22.5905    4.2738 H         1 SUB1        0.211
@<TRIPOS>BOND
     1    1    2 ar 
     2    1    6 ar 
     3   18    1 1  
     4    2    3 ar 
     5    3    4 ar 
     6    5    4 ar 
     7    6    5 ar 
     8    7    8 ar 
     9    7   12 ar 
    10   13    7 1  
    11    8    9 ar 
    12    9   10 ar 
    13   11   10 ar 
    14   12   11 ar 
    15   41   13 1  
    16   20   14 1  
    17   15   38 1  
    18   41   15 1  
    19   32   16 2  
    20   17   32 am 
    21   35   17 1  
    22   38   18 1  
    23   38   19 1  
    24   32   20 1  
    25   21   22 2  
    26   21   23 am 
    27   38   21 1  
    28   23   24 1  
    29   24   25 1  
    30   24   30 1  
    31   25   26 ar 
    32   25   27 ar 
    33   26   33 ar 
    34   34   26 1  
    35   27   28 ar 
    36   28   29 ar 
    37   33   29 ar 
    38   30   31 1  
    39   30   34 1  
    40   35   36 1  
    41   40   35 1  
    42   36   37 1  
    43   36   39 1  
    44   40   42 2  
    45   43   40 am 
    46   41   43 1  
    47    2   44 1  
    48    3   45 1  
    49    4   46 1  
    50    5   47 1  
    51    6   48 1  
    52    8   49 1  
    53    9   50 1  
    54   10   51 1  
    55   11   52 1  
    56   12   53 1  
    57   13   54 1  
    58   13   55 1  
    59   14   56 1  
    60   14   57 1  
    61   14   58 1  
    62   15   59 1  
    63   15   60 1  
    64   17   61 1  
    65   18   62 1  
    66   18   63 1  
    67   19   64 1  
    68   23   65 1  
    69   24   66 1  
    70   27   67 1  
    71   28   68 1  
    72   29   69 1  
    73   30   70 1  
    74   31   71 1  
    75   33   72 1  
    76   34   73 1  
    77   34   74 1  
    78   35   75 1  
    79   36   76 1  
    80   37   77 1  
    81   37   78 1  
    82   37   79 1  
    83   39   80 1  
    84   39   81 1  
    85   39   82 1  
    86   43   83 1  
@<TRIPOS>SUBSTRUCTURE
     1 SUB1        1 GROUP

