### 
### Created by X-TOOL on Mon Oct 24 22:01:22 2005
### 

@<TRIPOS>MOLECULE
1o30_ligand
   52    55     1     0     0
SMALL
GAST_HUCK


@<TRIPOS>ATOM
      1 C1         43.9790   -3.1320   26.0090 C.ar      1 SUB1        0.171
      2 C2         44.1660   -1.7150   25.9880 C.ar      1 SUB1       -0.020
      3 C3         44.0260   -0.9210   27.1250 C.ar      1 SUB1       -0.036
      4 C4         43.6960   -1.5690   28.2900 C.ar      1 SUB1        0.081
      5 C5         43.5080   -2.8930   28.3690 C.ar      1 SUB1        0.034
      6 C6         43.6370   -3.7220   27.2600 C.ar      1 SUB1       -0.007
      7 C7         44.1430   -3.8810   24.8290 C.cat     1 SUB1        0.310
      8 N1         43.8290   -5.1620   24.8090 N.pl3     1 SUB1       -0.201
      9 N2         44.6190   -3.2720   23.7540 N.pl3     1 SUB1       -0.201
     10 N3         43.5080   -1.0990   29.4710 N.pl3     1 SUB1       -0.251
     11 N4         43.1930   -3.2870   29.5910 N.2       1 SUB1       -0.310
     12 C8         43.2150   -2.1200   30.2090 C.2       1 SUB1        0.135
     13 C1'        42.9990   -1.9840   31.6010 C.ar      1 SUB1        0.061
     14 C2'        42.6790   -3.0930   32.3960 C.ar      1 SUB1       -0.046
     15 C3'        42.4550   -3.0140   33.7780 C.ar      1 SUB1       -0.028
     16 C31'       42.0810   -4.3060   34.5590 C.3       1 SUB1        0.038
     17 C32'       40.5760   -4.4840   34.2510 C.2       1 SUB1        0.041
     18 O33'       40.2540   -5.3170   33.4190 O.co2     1 SUB1       -0.566
     19 O34'       39.7880   -3.7720   34.8420 O.co2     1 SUB1       -0.566
     20 C42'       42.3820   -4.2100   36.1260 C.3       1 SUB1        0.009
     21 C43'       43.1110   -5.4400   36.7760 C.2       1 SUB1        0.033
     22 O44'       42.9800   -6.5550   36.2930 O.co2     1 SUB1       -0.566
     23 O45'       43.7970   -5.2220   37.7740 O.co2     1 SUB1       -0.566
     24 C4'        42.5660   -1.7720   34.3740 C.ar      1 SUB1       -0.052
     25 C5'        42.8880   -0.6190   33.6550 C.ar      1 SUB1        0.014
     26 C6'        43.0930   -0.7290   32.2710 C.ar      1 SUB1        0.113
     27 O6'        43.3600    0.4410   31.5780 O.3       1 SUB1       -0.327
     28 C1''       43.0410    0.5860   34.3410 C.ar      1 SUB1        0.013
     29 C2''       44.2770    1.2600   34.3350 C.ar      1 SUB1        0.138
     30 C3''       44.4490    2.4280   35.0450 C.ar      1 SUB1       -0.029
     31 C4''       43.3990    2.9670   35.7810 C.ar      1 SUB1       -0.065
     32 C5''       42.1740    2.3320   35.7960 C.ar      1 SUB1       -0.067
     33 C6''       41.9990    1.1560   35.0860 C.ar      1 SUB1       -0.058
     34 F2''       45.3690    0.7730   33.5920 F         1 SUB1       -0.183
     35 H21        44.4250   -1.2260   25.0680 H         1 SUB1        0.059
     36 H31        44.1620    0.1490   27.0940 H         1 SUB1        0.055
     37 H61        43.4790   -4.7850   27.3500 H         1 SUB1        0.060
     38 H81        43.4930   -5.5660   25.6730 H         1 SUB1        0.192
     39 H82        43.8960   -5.7890   24.0380 H         1 SUB1        0.192
     40 H91        44.9000   -2.3050   23.7980 H         1 SUB1        0.192
     41 H92        44.7720   -3.7350   22.8880 H         1 SUB1        0.192
     42 H101       43.5560   -0.1630   29.7950 H         1 SUB1        0.230
     43 H141       42.5990   -4.0580   31.9180 H         1 SUB1        0.058
     44 H161       42.6320   -5.1330   34.1340 H         1 SUB1        0.071
     45 H201       43.0170   -3.3580   36.3030 H         1 SUB1        0.054
     46 H202       41.4680   -4.0400   36.6730 H         1 SUB1        0.054
     47 H241       42.3960   -1.6790   35.4350 H         1 SUB1        0.057
     48 H301       45.4070    2.9220   35.0290 H         1 SUB1        0.060
     49 H311       43.5390    3.8820   36.3370 H         1 SUB1        0.060
     50 H321       41.3520    2.7460   36.3600 H         1 SUB1        0.058
     51 H331       41.0310    0.6770   35.1130 H         1 SUB1        0.060
     52 H271       43.4796    0.2419   30.6568 H         1 SUB1        0.252
@<TRIPOS>BOND
     1    1    2 ar 
     2    1    6 ar 
     3    1    7 1  
     4    2    3 ar 
     5    2   35 1  
     6    3    4 ar 
     7    3   36 1  
     8    4    5 ar 
     9    4   10 1  
    10    5    6 ar 
    11    5   11 1  
    12    6   37 1  
    13    7    8 1  
    14    7    9 1  
    15    8   38 1  
    16    8   39 1  
    17    9   40 1  
    18    9   41 1  
    19   10   12 1  
    20   10   42 1  
    21   11   12 2  
    22   12   13 1  
    23   13   14 ar 
    24   13   26 ar 
    25   14   15 ar 
    26   14   43 1  
    27   15   16 1  
    28   15   24 ar 
    29   16   17 1  
    30   16   20 1  
    31   16   44 1  
    32   17   18 2  
    33   17   19 2  
    34   20   21 1  
    35   20   45 1  
    36   20   46 1  
    37   21   22 2  
    38   21   23 2  
    39   24   25 ar 
    40   24   47 1  
    41   25   26 ar 
    42   25   28 1  
    43   26   27 1  
    44   28   29 ar 
    45   28   33 ar 
    46   29   30 ar 
    47   29   34 1  
    48   30   31 ar 
    49   30   48 1  
    50   31   32 ar 
    51   31   49 1  
    52   32   33 ar 
    53   32   50 1  
    54   33   51 1  
    55   27   52 1  
@<TRIPOS>SUBSTRUCTURE
     1 SUB1        1 GROUP

