2fqw_ligand
  -I-interpret- 

 31 33  0  0  0  0  0  0  0  0999 V2000
   33.9770   61.4890   10.3450 N   0  0  0  0  0
   34.7280   61.5340    9.2430 C   0  0  0  0  0
   35.3520   60.5580    8.5640 N   0  0  0  0  0
   36.0580   60.8160    7.4740 C   0  0  0  0  0
   36.1660   62.1330    7.0050 N   0  0  0  0  0
   35.5300   63.1760    7.6970 C   0  0  0  0  0
   35.6300   64.3380    7.3000 O   0  0  0  0  0
   34.7970   62.8630    8.8390 C   0  0  0  0  0
   34.0850   63.5740    9.7130 N   0  0  0  0  0
   33.5960   62.7350   10.6260 C   0  0  0  0  0
   31.3410   61.3630   13.6360 C   0  0  0  0  0
   31.6380   62.7050   13.2340 O   0  0  0  0  0
   32.3370   60.3630   13.0370 C   0  0  0  0  0
   32.2640   60.4650   11.6030 O   0  0  0  0  0
   33.5810   60.2460   11.0590 C   0  0  0  0  0
   34.5090   59.9530   12.2430 C   0  0  0  0  0
   34.5300   58.5400   12.4790 O   0  0  0  0  0
   33.7930   60.6990   13.3670 C   0  0  0  0  0
   34.1720   60.0970   14.6080 O   0  0  0  0  0
   36.5550   60.0051    6.9416 H   0  0  0  0  0
   36.7055   62.3329    6.1628 H   0  0  0  0  0
   32.9772   63.0245   11.4753 H   0  0  0  0  0
   30.3420   61.1096   13.2813 H   0  0  0  0  0
   31.4059   61.3059   14.7226 H   0  0  0  0  0
   31.5944   62.7683   12.2771 H   0  0  0  0  0
   32.0764   59.3850   13.4415 H   0  0  0  0  0
   33.6247   59.4124   10.3581 H   0  0  0  0  0
   35.5491   60.2539   12.1172 H   0  0  0  0  0
   35.1098   58.3490   13.2199 H   0  0  0  0  0
   33.9988   61.7664   13.4465 H   0  0  0  0  0
   33.9139   59.1724   14.6059 H   0  0  0  0  0
  1  2  1  0  0  0
  1 10  1  0  0  0
 15  1  1  0  0  0
  2  3  1  0  0  0
  2  8  2  0  0  0
  3  4  2  0  0  0
  4  5  1  0  0  0
  6  5  1  0  0  0
  6  7  2  0  0  0
  8  6  1  0  0  0
  9  8  1  0  0  0
 10  9  2  0  0  0
 11 12  1  0  0  0
 13 11  1  0  0  0
 14 13  1  0  0  0
 13 18  1  0  0  0
 14 15  1  0  0  0
 15 16  1  0  0  0
 16 17  1  0  0  0
 16 18  1  0  0  0
 18 19  1  0  0  0
  4 20  1  0  0  0
  5 21  1  0  0  0
 10 22  1  0  0  0
 11 23  1  0  0  0
 11 24  1  0  0  0
 12 25  1  0  0  0
 13 26  1  0  0  0
 15 27  1  0  0  0
 16 28  1  0  0  0
 17 29  1  0  0  0
 18 30  1  0  0  0
 19 31  1  0  0  0
M  END
$$$$
