### 
### Created by X-TOOL on Sun Jun  3 11:23:49 2007
### 

@<TRIPOS>MOLECULE
2fqw_ligand
   31    33     1     0     0
SMALL
GAST_HUCK


@<TRIPOS>ATOM
      1 N9         33.9770   61.4890   10.3450 N.pl3     1 SUB1       -0.205
      2 C4         34.7280   61.5340    9.2430 C.2       1 SUB1        0.135
      3 N3         35.3520   60.5580    8.5640 N.2       1 SUB1       -0.268
      4 C2         36.0580   60.8160    7.4740 C.2       1 SUB1        0.127
      5 N1         36.1660   62.1330    7.0050 N.am      1 SUB1       -0.204
      6 C6         35.5300   63.1760    7.6970 C.2       1 SUB1        0.220
      7 O6         35.6300   64.3380    7.3000 O.2       1 SUB1       -0.407
      8 C5         34.7970   62.8630    8.8390 C.2       1 SUB1        0.104
      9 N7         34.0850   63.5740    9.7130 N.2       1 SUB1       -0.315
     10 C8         33.5960   62.7350   10.6260 C.2       1 SUB1        0.100
     11 C5         31.3410   61.3630   13.6360 C.3       1 SUB1        0.073
     12 O5         31.6380   62.7050   13.2340 O.3       1 SUB1       -0.392
     13 C4         32.3370   60.3630   13.0370 C.3       1 SUB1        0.114
     14 O4         32.2640   60.4650   11.6030 O.3       1 SUB1       -0.336
     15 C1         33.5810   60.2460   11.0590 C.3       1 SUB1        0.200
     16 C2         34.5090   59.9530   12.2430 C.3       1 SUB1        0.139
     17 O2         34.5300   58.5400   12.4790 O.3       1 SUB1       -0.384
     18 C3         33.7930   60.6990   13.3670 C.3       1 SUB1        0.115
     19 O3         34.1720   60.0970   14.6080 O.3       1 SUB1       -0.386
     20 H          36.5550   60.0051    6.9416 H         1 SUB1        0.149
     21 H          36.7055   62.3329    6.1628 H         1 SUB1        0.256
     22 H          32.9772   63.0245   11.4753 H         1 SUB1        0.121
     23 H          30.3420   61.1096   13.2813 H         1 SUB1        0.058
     24 H          31.4059   61.3059   14.7226 H         1 SUB1        0.058
     25 H          31.5944   62.7683   12.2771 H         1 SUB1        0.209
     26 H          32.0764   59.3850   13.4415 H         1 SUB1        0.065
     27 H          33.6247   59.4124   10.3581 H         1 SUB1        0.100
     28 H          35.5491   60.2539   12.1172 H         1 SUB1        0.068
     29 H          35.1098   58.3490   13.2199 H         1 SUB1        0.210
     30 H          33.9988   61.7664   13.4465 H         1 SUB1        0.065
     31 H          33.9139   59.1724   14.6059 H         1 SUB1        0.210
@<TRIPOS>BOND
     1    1    2 1  
     2    1   10 1  
     3   15    1 1  
     4    2    3 1  
     5    2    8 2  
     6    3    4 2  
     7    4    5 1  
     8    6    5 am 
     9    6    7 2  
    10    8    6 1  
    11    9    8 1  
    12   10    9 2  
    13   11   12 1  
    14   13   11 1  
    15   14   13 1  
    16   13   18 1  
    17   14   15 1  
    18   15   16 1  
    19   16   17 1  
    20   16   18 1  
    21   18   19 1  
    22    4   20 1  
    23    5   21 1  
    24   10   22 1  
    25   11   23 1  
    26   11   24 1  
    27   12   25 1  
    28   13   26 1  
    29   15   27 1  
    30   16   28 1  
    31   17   29 1  
    32   18   30 1  
    33   19   31 1  
@<TRIPOS>SUBSTRUCTURE
     1 SUB1        1 GROUP

