### 
### Created by X-TOOL on Tue Oct 25 01:17:10 2005
### 

@<TRIPOS>MOLECULE
1nfx_ligand
   54    58     1     0     0
SMALL
GAST_HUCK


@<TRIPOS>ATOM
      1 O15         3.0240    1.4970   19.6010 O.3       1 SUB1       -0.392
      2 C10         3.6290    1.2890   18.3300 C.3       1 SUB1        0.071
      3 C6          4.6490    2.4260   18.0790 C.3       1 SUB1        0.078
      4 N2          5.8630    2.3630   18.9590 N.pl3     1 SUB1       -0.247
      5 C5          6.9980    1.6170   18.5910 C.ar      1 SUB1        0.080
      6 C7          7.9620    1.7650   19.6380 C.ar      1 SUB1       -0.011
      7 C11         9.1910    1.1150   19.5130 C.ar      1 SUB1       -0.009
      8 N16         9.4950    0.3450   18.4150 N.ar      1 SUB1       -0.324
      9 C14         8.5770    0.2060   17.4160 C.ar      1 SUB1       -0.011
     10 C9          7.3110    0.8300   17.4710 C.ar      1 SUB1       -0.022
     11 C3          7.3740    2.6180   20.6430 C.2       1 SUB1       -0.056
     12 C1          6.0850    2.9620   20.1790 C.2       1 SUB1        0.072
     13 C4          5.0250    3.8540   20.8600 C.3       1 SUB1        0.094
     14 N8          5.4810    5.0590   21.6000 N.am      1 SUB1       -0.255
     15 C12         5.0590    5.2490   22.9140 C.2       1 SUB1        0.200
     16 O18         4.3260    4.4710   23.5090 O.2       1 SUB1       -0.395
     17 C17         5.5690    6.5220   23.6350 C.3       1 SUB1        0.119
     18 N20         6.0490    7.6170   22.7620 N.am      1 SUB1       -0.212
     19 C19         7.0310    7.0800   21.7900 C.3       1 SUB1        0.053
     20 C13         6.3750    6.0220   20.8810 C.3       1 SUB1        0.054
     21 S21         6.6240    9.0390   23.6600 S.o2      1 SUB1        0.085
     22 O23         5.6180    9.2810   24.6610 O.2       1 SUB1       -0.148
     23 O24         6.8390   10.0160   22.6250 O.2       1 SUB1       -0.148
     24 C22         8.1260    8.6830   24.4200 C.2       1 SUB1        0.167
     25 C25         8.1590    8.0810   25.6900 C.2       1 SUB1       -0.033
     26 C27         9.5230    7.8410   26.1410 C.ar      1 SUB1       -0.023
     27 C28        10.4700    8.2970   25.1410 C.ar      1 SUB1        0.040
     28 S26         9.6780    8.9630   23.7900 S.3       1 SUB1       -0.009
     29 C30        11.8340    8.1450   25.3740 C.ar      1 SUB1       -0.036
     30 C32        12.2780    7.5450   26.5740 C.ar      1 SUB1        0.032
     31 CL33       13.9650    7.3450   26.8310 Cl        1 SUB1       -0.076
     32 C31        11.3680    7.1010   27.5620 C.ar      1 SUB1       -0.058
     33 C29         9.9810    7.2570   27.3230 C.ar      1 SUB1       -0.066
     34 H11         2.3947    0.8051   19.7680 H         1 SUB1        0.209
     35 H21         4.1554    0.3232   18.3163 H         1 SUB1        0.058
     36 H22         2.8639    1.3104   17.5400 H         1 SUB1        0.058
     37 H31         4.9892    2.3701   17.0344 H         1 SUB1        0.062
     38 H32         4.1531    3.3909   18.2609 H         1 SUB1        0.062
     39 H71         9.9258    1.2201   20.3030 H         1 SUB1        0.072
     40 H91         8.8265   -0.4017   16.5537 H         1 SUB1        0.068
     41 H101        6.5963    0.7040   16.6658 H         1 SUB1        0.062
     42 H111        7.8347    2.9348   21.5775 H         1 SUB1        0.019
     43 H131        4.3373    4.2078   20.0778 H         1 SUB1        0.074
     44 H132        4.4808    3.2290   21.5833 H         1 SUB1        0.074
     45 H171        4.7447    6.9265   24.2407 H         1 SUB1        0.072
     46 H172        6.4072    6.2345   24.2867 H         1 SUB1        0.072
     47 H191        7.4089    7.8981   21.1593 H         1 SUB1        0.050
     48 H192        7.8642    6.6085   22.3317 H         1 SUB1        0.050
     49 H201        7.1816    5.4550   20.3933 H         1 SUB1        0.054
     50 H202        5.7806    6.5549   20.1243 H         1 SUB1        0.054
     51 H251        7.2717    7.8250   26.2671 H         1 SUB1        0.044
     52 H291       12.5529    8.4856   24.6377 H         1 SUB1        0.058
     53 H321       11.7246    6.6513   28.4816 H         1 SUB1        0.056
     54 H331        9.2675    6.9193   28.0659 H         1 SUB1        0.057
@<TRIPOS>BOND
     1    1    2 1  
     2    2    3 1  
     3    3    4 1  
     4    4    5 1  
     5    4   12 1  
     6    5    6 ar 
     7    5   10 ar 
     8    6    7 ar 
     9    6   11 1  
    10    7    8 ar 
    11    8    9 ar 
    12    9   10 ar 
    13   11   12 2  
    14   12   13 1  
    15   13   14 1  
    16   14   15 am 
    17   14   20 1  
    18   15   16 2  
    19   15   17 1  
    20   17   18 1  
    21   18   19 1  
    22   18   21 am 
    23   19   20 1  
    24   21   22 2  
    25   21   23 2  
    26   21   24 1  
    27   24   25 2  
    28   24   28 1  
    29   25   26 1  
    30   26   27 ar 
    31   26   33 ar 
    32   27   28 1  
    33   27   29 ar 
    34   29   30 ar 
    35   30   31 1  
    36   30   32 ar 
    37   32   33 ar 
    38    1   34 1  
    39    2   35 1  
    40    2   36 1  
    41    3   37 1  
    42    3   38 1  
    43    7   39 1  
    44    9   40 1  
    45   10   41 1  
    46   11   42 1  
    47   13   43 1  
    48   13   44 1  
    49   17   45 1  
    50   17   46 1  
    51   19   47 1  
    52   19   48 1  
    53   20   49 1  
    54   20   50 1  
    55   25   51 1  
    56   29   52 1  
    57   32   53 1  
    58   33   54 1  
@<TRIPOS>SUBSTRUCTURE
     1 SUB1        1 GROUP

