1nfx_ligand
  -I-interpret- 

 54 58  0  0  0  0  0  0  0  0999 V2000
    3.0240    1.4970   19.6010 O   0  0  0  0  0
    3.6290    1.2890   18.3300 C   0  0  0  0  0
    4.6490    2.4260   18.0790 C   0  0  0  0  0
    5.8630    2.3630   18.9590 N   0  0  0  0  0
    6.9980    1.6170   18.5910 C   0  0  0  0  0
    7.9620    1.7650   19.6380 C   0  0  0  0  0
    9.1910    1.1150   19.5130 C   0  0  0  0  0
    9.4950    0.3450   18.4150 N   0  0  0  0  0
    8.5770    0.2060   17.4160 C   0  0  0  0  0
    7.3110    0.8300   17.4710 C   0  0  0  0  0
    7.3740    2.6180   20.6430 C   0  0  0  0  0
    6.0850    2.9620   20.1790 C   0  0  0  0  0
    5.0250    3.8540   20.8600 C   0  0  0  0  0
    5.4810    5.0590   21.6000 N   0  0  0  0  0
    5.0590    5.2490   22.9140 C   0  0  0  0  0
    4.3260    4.4710   23.5090 O   0  0  0  0  0
    5.5690    6.5220   23.6350 C   0  0  0  0  0
    6.0490    7.6170   22.7620 N   0  0  0  0  0
    7.0310    7.0800   21.7900 C   0  0  0  0  0
    6.3750    6.0220   20.8810 C   0  0  0  0  0
    6.6240    9.0390   23.6600 S   0  0  0  0  0
    5.6180    9.2810   24.6610 O   0  0  0  0  0
    6.8390   10.0160   22.6250 O   0  0  0  0  0
    8.1260    8.6830   24.4200 C   0  0  0  0  0
    8.1590    8.0810   25.6900 C   0  0  0  0  0
    9.5230    7.8410   26.1410 C   0  0  0  0  0
   10.4700    8.2970   25.1410 C   0  0  0  0  0
    9.6780    8.9630   23.7900 S   0  0  0  0  0
   11.8340    8.1450   25.3740 C   0  0  0  0  0
   12.2780    7.5450   26.5740 C   0  0  0  0  0
   13.9650    7.3450   26.8310 Cl  0  0  0  0  0
   11.3680    7.1010   27.5620 C   0  0  0  0  0
    9.9810    7.2570   27.3230 C   0  0  0  0  0
    2.3947    0.8051   19.7680 H   0  0  0  0  0
    4.1554    0.3232   18.3163 H   0  0  0  0  0
    2.8639    1.3104   17.5400 H   0  0  0  0  0
    4.9892    2.3701   17.0344 H   0  0  0  0  0
    4.1531    3.3909   18.2609 H   0  0  0  0  0
    9.9258    1.2201   20.3030 H   0  0  0  0  0
    8.8265   -0.4017   16.5537 H   0  0  0  0  0
    6.5963    0.7040   16.6658 H   0  0  0  0  0
    7.8347    2.9348   21.5775 H   0  0  0  0  0
    4.3373    4.2078   20.0778 H   0  0  0  0  0
    4.4808    3.2290   21.5833 H   0  0  0  0  0
    4.7447    6.9265   24.2407 H   0  0  0  0  0
    6.4072    6.2345   24.2867 H   0  0  0  0  0
    7.4089    7.8981   21.1593 H   0  0  0  0  0
    7.8642    6.6085   22.3317 H   0  0  0  0  0
    7.1816    5.4550   20.3933 H   0  0  0  0  0
    5.7806    6.5549   20.1243 H   0  0  0  0  0
    7.2717    7.8250   26.2671 H   0  0  0  0  0
   12.5529    8.4856   24.6377 H   0  0  0  0  0
   11.7246    6.6513   28.4816 H   0  0  0  0  0
    9.2675    6.9193   28.0659 H   0  0  0  0  0
  1  2  1  0  0  0
  2  3  1  0  0  0
  3  4  1  0  0  0
  4  5  1  0  0  0
  4 12  1  0  0  0
  5  6  4  0  0  0
  5 10  4  0  0  0
  6  7  4  0  0  0
  6 11  1  0  0  0
  7  8  4  0  0  0
  8  9  4  0  0  0
  9 10  4  0  0  0
 11 12  2  0  0  0
 12 13  1  0  0  0
 13 14  1  0  0  0
 14 15  1  0  0  0
 14 20  1  0  0  0
 15 16  2  0  0  0
 15 17  1  0  0  0
 17 18  1  0  0  0
 18 19  1  0  0  0
 18 21  1  0  0  0
 19 20  1  0  0  0
 21 22  2  0  0  0
 21 23  2  0  0  0
 21 24  1  0  0  0
 24 25  2  0  0  0
 24 28  1  0  0  0
 25 26  1  0  0  0
 26 27  4  0  0  0
 26 33  4  0  0  0
 27 28  1  0  0  0
 27 29  4  0  0  0
 29 30  4  0  0  0
 30 31  1  0  0  0
 30 32  4  0  0  0
 32 33  4  0  0  0
  1 34  1  0  0  0
  2 35  1  0  0  0
  2 36  1  0  0  0
  3 37  1  0  0  0
  3 38  1  0  0  0
  7 39  1  0  0  0
  9 40  1  0  0  0
 10 41  1  0  0  0
 11 42  1  0  0  0
 13 43  1  0  0  0
 13 44  1  0  0  0
 17 45  1  0  0  0
 17 46  1  0  0  0
 19 47  1  0  0  0
 19 48  1  0  0  0
 20 49  1  0  0  0
 20 50  1  0  0  0
 25 51  1  0  0  0
 29 52  1  0  0  0
 32 53  1  0  0  0
 33 54  1  0  0  0
M  END
$$$$
