### 
### Created by X-TOOL on Mon Oct 24 22:03:52 2005
### 

@<TRIPOS>MOLECULE
2qwc_ligand
   36    36     1     0     0
SMALL
GAST_HUCK


@<TRIPOS>ATOM
      1 C1         23.5770   19.7040   64.8560 C.2       1 SUB1        0.061
      2 C2         24.2480   18.7040   64.1040 C.2       1 SUB1        0.094
      3 C3         23.5930   17.5840   63.6500 C.2       1 SUB1       -0.016
      4 C4         24.2690   16.6160   62.6750 C.3       1 SUB1        0.110
      5 C5         25.8490   16.7350   62.7850 C.3       1 SUB1        0.110
      6 C6         26.2320   18.2040   62.7210 C.3       1 SUB1        0.133
      7 C7         27.7600   18.4130   62.8160 C.3       1 SUB1        0.115
      8 C8         28.1600   19.8920   62.7310 C.3       1 SUB1        0.107
      9 C9         29.6910   20.1650   62.9680 C.3       1 SUB1        0.073
     10 C10        27.1160   14.9180   61.6870 C.2       1 SUB1        0.174
     11 C11        27.5650   14.2040   60.4000 C.3       1 SUB1        0.026
     12 N5         26.3710   16.0140   61.5960 N.am      1 SUB1       -0.276
     13 O1A        24.2610   20.6920   65.1850 O.co2     1 SUB1       -0.572
     14 O1B        22.3780   19.5990   65.2090 O.co2     1 SUB1       -0.572
     15 O4         23.8210   15.3410   63.0240 O.3       1 SUB1       -0.375
     16 O6         25.6370   18.8680   63.8120 O.3       1 SUB1       -0.320
     17 O7         28.1690   17.9140   64.0970 O.3       1 SUB1       -0.386
     18 O8         27.8350   20.2490   61.4530 O.3       1 SUB1       -0.387
     19 O9         30.3910   19.4290   61.9940 O.3       1 SUB1       -0.392
     20 O10        27.5250   14.4910   62.7700 O.2       1 SUB1       -0.397
     21 H31        22.5780   17.3821   63.9889 H         1 SUB1        0.061
     22 H41        23.9653   16.8471   61.6433 H         1 SUB1        0.081
     23 H51        26.2216   16.2834   63.7162 H         1 SUB1        0.064
     24 H61        25.8659   18.6310   61.7757 H         1 SUB1        0.069
     25 H71        28.2582   17.8552   62.0094 H         1 SUB1        0.065
     26 H81        27.5796   20.4764   63.4601 H         1 SUB1        0.064
     27 H91        29.9832   19.8337   63.9754 H         1 SUB1        0.058
     28 H92        29.9057   21.2382   62.8583 H         1 SUB1        0.058
     29 H111       28.1691   13.3227   60.6613 H         1 SUB1        0.047
     30 H112       28.1668   14.8930   59.7893 H         1 SUB1        0.047
     31 H113       26.6801   13.8858   59.8294 H         1 SUB1        0.047
     32 H121       26.1520   16.3692   60.6872 H         1 SUB1        0.186
     33 H151       24.2141   14.6989   62.4447 H         1 SUB1        0.214
     34 H171       27.7194   18.3956   64.7815 H         1 SUB1        0.210
     35 H181       28.3225   19.7101   60.8412 H         1 SUB1        0.210
     36 H191       30.1263   19.7188   61.1289 H         1 SUB1        0.209
@<TRIPOS>BOND
     1    1   14 2  
     2    1   13 2  
     3    1    2 1  
     4    2   16 1  
     5    2    3 2  
     6    3    4 1  
     7    4   15 1  
     8    4    5 1  
     9    5   12 1  
    10    5    6 1  
    11    6   16 1  
    12    6    7 1  
    13    7   17 1  
    14    7    8 1  
    15    8   18 1  
    16    8    9 1  
    17    9   19 1  
    18   12   10 am 
    19   10   20 2  
    20   10   11 1  
    21    3   21 1  
    22    4   22 1  
    23    5   23 1  
    24    6   24 1  
    25    7   25 1  
    26    8   26 1  
    27    9   27 1  
    28    9   28 1  
    29   11   29 1  
    30   11   30 1  
    31   11   31 1  
    32   12   32 1  
    33   15   33 1  
    34   17   34 1  
    35   18   35 1  
    36   19   36 1  
@<TRIPOS>SUBSTRUCTURE
     1 SUB1        1 GROUP

