### 
### Created by X-TOOL on Tue Oct 25 01:42:07 2005
### 

@<TRIPOS>MOLECULE
1oar_ligand
   29    31     1     0     0
SMALL
GAST_HUCK


@<TRIPOS>ATOM
      1 C2         36.8710   54.1050   78.8980 C.ar      1 SUB1        0.072
      2 C3         38.8510   53.5610   80.4660 C.ar      1 SUB1        0.049
      3 C4         37.2320   52.8180   78.2270 C.ar      1 SUB1        0.034
      4 C5         35.8030   54.8150   78.4180 C.ar      1 SUB1        0.144
      5 C8         38.3550   51.9830   78.6800 C.2       1 SUB1        0.157
      6 C9         36.5190   52.3350   77.1440 C.ar      1 SUB1       -0.036
      7 C10        35.0940   54.2870   77.3120 C.ar      1 SUB1        0.150
      8 C11        40.2000   51.5810   80.2660 C.ar      1 SUB1       -0.039
      9 C12        40.6540   53.1480   82.0130 C.ar      1 SUB1       -0.052
     10 C14        40.9440   51.9670   81.3640 C.ar      1 SUB1       -0.052
     11 C13        35.4790   53.0520   76.7470 C.ar      1 SUB1        0.082
     12 C1         37.7080   54.4850   80.0340 C.2       1 SUB1        0.160
     13 C6         39.1460   52.3820   79.8180 C.ar      1 SUB1        0.049
     14 C7         39.6180   53.9450   81.5700 C.ar      1 SUB1       -0.039
     15 O6         33.7430   53.6900   74.8940 O.co2     1 SUB1       -0.481
     16 O4         33.9830   51.4270   75.1590 O.co2     1 SUB1       -0.481
     17 O3         34.0330   54.9600   76.8170 O.3       1 SUB1       -0.330
     18 O1         35.4360   55.9680   78.9970 O.3       1 SUB1       -0.329
     19 O5         35.5780   52.7220   74.0130 O.co2     1 SUB1       -0.481
     20 O          37.4860   55.5260   80.6350 O.2       1 SUB1       -0.369
     21 O2         38.6130   50.9420   78.0980 O.2       1 SUB1       -0.367
     22 S1         34.7060   52.6550   75.1280 S.o2      1 SUB1       -0.165
     23 H61        36.7983   51.4142   76.6447 H         1 SUB1        0.059
     24 H81        40.4339   50.6560   79.7514 H         1 SUB1        0.068
     25 H91        41.2406   53.4512   82.8727 H         1 SUB1        0.066
     26 H101       41.7562   51.3409   81.7154 H         1 SUB1        0.066
     27 H141       39.3975   54.8750   82.0815 H         1 SUB1        0.068
     28 H171       34.1885   55.1659   75.9028 H         1 SUB1        0.247
     29 H181       36.0248   56.1609   79.7172 H         1 SUB1        0.248
@<TRIPOS>BOND
     1    3    1 ar 
     2    1    4 ar 
     3   12    1 1  
     4    2   12 1  
     5   13    2 ar 
     6    2   14 ar 
     7    5    3 1  
     8    3    6 ar 
     9    4    7 ar 
    10    4   18 1  
    11   13    5 1  
    12    5   21 2  
    13    6   11 ar 
    14   11    7 ar 
    15    7   17 1  
    16    8   10 ar 
    17    8   13 ar 
    18   10    9 ar 
    19    9   14 ar 
    20   11   22 1  
    21   12   20 2  
    22   22   15 2  
    23   22   16 2  
    24   22   19 2  
    25    6   23 1  
    26    8   24 1  
    27    9   25 1  
    28   10   26 1  
    29   14   27 1  
    30   17   28 1  
    31   18   29 1  
@<TRIPOS>SUBSTRUCTURE
     1 SUB1        1 GROUP

