### 
### Created by X-TOOL on Mon Oct 24 23:43:51 2005
### 

@<TRIPOS>MOLECULE
1mu6_ligand
   50    52     1     0     0
SMALL
GAST_HUCK


@<TRIPOS>ATOM
      1 N1         21.0030  -16.5290   25.1660 N.ar      1 SUB1       -0.266
      2 C2         19.9150  -15.9270   25.8320 C.ar      1 SUB1        0.090
      3 C3         20.0020  -14.5590   26.3240 C.ar      1 SUB1       -0.007
      4 C4         21.2530  -13.8830   26.0790 C.ar      1 SUB1       -0.014
      5 C5         22.3420  -14.5410   25.3720 C.ar      1 SUB1       -0.006
      6 C6         22.2100  -15.9040   24.9070 C.ar      1 SUB1        0.042
      7 C11        18.6310  -16.7480   25.9420 C.3       1 SUB1        0.267
      8 C12        18.0830  -17.1760   24.5920 C.3       1 SUB1        0.063
      9 F13        17.6280  -16.1140   26.5880 F         1 SUB1       -0.242
     10 F1         18.9320  -17.8750   26.6020 F         1 SUB1       -0.242
     11 N18        17.4760  -16.0450   23.8730 N.3       1 SUB1       -0.246
     12 C21        18.0880  -15.3250   22.8760 C.2       1 SUB1        0.166
     13 C22        17.4500  -14.0430   22.4650 C.2       1 SUB1        0.266
     14 N23        18.0980  -13.3440   21.4690 N.am      1 SUB1       -0.187
     15 C24        19.3180  -13.8330   20.8740 C.2       1 SUB1        0.071
     16 C25        19.8710  -15.0400   21.3370 C.2       1 SUB1       -0.015
     17 N26        19.2510  -15.7300   22.2940 N.2       1 SUB1       -0.326
     18 O28        16.4120  -13.6170   22.9680 O.2       1 SUB1       -0.394
     19 C29        20.0270  -13.1170   19.7930 C.3       1 SUB1       -0.000
     20 C33        17.4940  -12.0810   21.0030 C.3       1 SUB1        0.153
     21 C34        16.0640  -12.2970   20.5380 C.2       1 SUB1        0.210
     22 N37        15.1990  -11.3330   20.9400 N.am      1 SUB1       -0.271
     23 O38        15.7760  -13.2640   19.8350 O.2       1 SUB1       -0.394
     24 C39        13.7930  -11.3680   20.5230 C.3       1 SUB1        0.081
     25 C40        12.8490  -11.3470   21.7030 C.ar      1 SUB1        0.084
     26 C43        11.8640  -12.3760   21.8290 C.ar      1 SUB1        0.163
     27 C44        10.9730  -12.3960   22.9570 C.ar      1 SUB1       -0.015
     28 C45        11.0960  -11.3520   23.9430 C.ar      1 SUB1       -0.043
     29 N46        12.9510  -10.3500   22.6580 N.ar      1 SUB1       -0.298
     30 F47        11.8270  -13.2730   20.8440 F         1 SUB1       -0.179
     31 C50        12.1070  -10.3310   23.7580 C.ar      1 SUB1       -0.002
     32 H31        19.1792  -14.0791   26.8414 H         1 SUB1        0.095
     33 H41        21.3844  -12.8653   26.4283 H         1 SUB1        0.081
     34 H51        23.2649  -14.0018   25.1915 H         1 SUB1        0.094
     35 H61        23.0137  -16.4090   24.3835 H         1 SUB1        0.093
     36 H81        17.3194  -17.9526   24.7462 H         1 SUB1        0.045
     37 H82        18.9049  -17.5850   23.9860 H         1 SUB1        0.045
     38 H111       17.2214  -15.3229   24.6347 H         1 SUB1        0.160
     39 H161       20.8039  -15.4103   20.9145 H         1 SUB1        0.030
     40 H191       20.9255  -13.6831   19.5062 H         1 SUB1        0.045
     41 H192       20.3206  -12.1175   20.1463 H         1 SUB1        0.045
     42 H193       19.3627  -13.0175   18.9219 H         1 SUB1        0.045
     43 H201       18.0881  -11.6862   20.1657 H         1 SUB1        0.087
     44 H202       17.4971  -11.3550   21.8293 H         1 SUB1        0.087
     45 H221       15.5229  -10.5908   21.5267 H         1 SUB1        0.188
     46 H241       13.6174  -12.2871   19.9447 H         1 SUB1        0.071
     47 H242       13.5889  -10.4918   19.8900 H         1 SUB1        0.071
     48 H271       10.2279  -13.1761   23.0632 H         1 SUB1        0.070
     49 H281       10.4432  -11.3311   24.8082 H         1 SUB1        0.064
     50 H311       12.2053   -9.5391   24.4917 H         1 SUB1        0.076
@<TRIPOS>BOND
     1    1    2 ar 
     2    1    6 ar 
     3    2    3 ar 
     4    2    7 1  
     5    3    4 ar 
     6    4    5 ar 
     7    5    6 ar 
     8    7    8 1  
     9    7    9 1  
    10    7   10 1  
    11    8   11 1  
    12   11   12 1  
    13   12   13 1  
    14   12   17 2  
    15   13   14 am 
    16   13   18 2  
    17   14   15 am 
    18   14   20 1  
    19   15   16 2  
    20   15   19 1  
    21   16   17 1  
    22   20   21 1  
    23   21   22 am 
    24   21   23 2  
    25   22   24 1  
    26   24   25 1  
    27   25   26 ar 
    28   25   29 ar 
    29   26   27 ar 
    30   26   30 1  
    31   27   28 ar 
    32   28   31 ar 
    33   29   31 ar 
    34    3   32 1  
    35    4   33 1  
    36    5   34 1  
    37    6   35 1  
    38    8   36 1  
    39    8   37 1  
    40   11   38 1  
    41   16   39 1  
    42   19   40 1  
    43   19   41 1  
    44   19   42 1  
    45   20   43 1  
    46   20   44 1  
    47   22   45 1  
    48   24   46 1  
    49   24   47 1  
    50   27   48 1  
    51   28   49 1  
    52   31   50 1  
@<TRIPOS>SUBSTRUCTURE
     1 SUB1        1 GROUP

