### 
### Created by X-TOOL on Tue Oct 25 01:42:06 2005
### 

@<TRIPOS>MOLECULE
1y6r_ligand
   37    39     1     0     0
SMALL
GAST_HUCK


@<TRIPOS>ATOM
      1 CS         56.1860   68.8130   22.6840 C.3       1 SUB1       -0.018
      2 S5         55.5290   70.4750   23.0530 S.3       1 SUB1       -0.162
      3 C5         56.3140   71.4030   21.7230 C.3       1 SUB1        0.011
      4 C4         57.7350   71.8840   22.0160 C.3       1 SUB1        0.047
      5 N4         58.2590   72.4490   20.7680 N.3       1 SUB1       -0.299
      6 C2         57.6410   74.2710   22.1260 C.3       1 SUB1        0.102
      7 O2         58.5200   75.3560   22.5470 O.3       1 SUB1       -0.386
      8 C3         57.8380   72.9880   23.0550 C.3       1 SUB1        0.100
      9 O3         59.1850   72.9790   23.6720 O.3       1 SUB1       -0.387
     10 C1         57.9360   73.8660   20.6330 C.3       1 SUB1        0.056
     11 C9         56.7680   73.9840   19.6620 C.2       1 SUB1       -0.008
     12 C8         56.8230   73.7360   18.2890 C.2       1 SUB1        0.029
     13 N7         55.6520   73.9030   17.6480 N.pl3     1 SUB1       -0.277
     14 C5         54.7790   74.2740   18.6310 C.ar      1 SUB1        0.130
     15 C6         53.3840   74.5950   18.6450 C.ar      1 SUB1        0.146
     16 N6         52.6230   74.5700   17.5430 N.pl3     1 SUB1       -0.316
     17 N1         52.8250   74.9360   19.8680 N.ar      1 SUB1       -0.274
     18 C2         53.5740   74.9600   20.9940 C.ar      1 SUB1        0.044
     19 N3         54.8910   74.6740   21.0960 N.ar      1 SUB1       -0.313
     20 C4         55.4340   74.3380   19.8780 C.ar      1 SUB1        0.045
     21 H11        55.7984   68.0937   23.4204 H         1 SUB1        0.034
     22 H12        57.2846   68.8334   22.7346 H         1 SUB1        0.034
     23 H13        55.8710   68.5100   21.6746 H         1 SUB1        0.034
     24 H31        55.6928   72.2858   21.5112 H         1 SUB1        0.039
     25 H32        56.3499   70.7577   20.8329 H         1 SUB1        0.039
     26 H41        58.3424   71.0265   22.3410 H         1 SUB1        0.050
     27 H51        57.8299   71.9124   19.9348 H         1 SUB1        0.124
     28 H61        56.5985   74.6131   22.2051 H         1 SUB1        0.065
     29 H71        59.4242   75.0706   22.4878 H         1 SUB1        0.210
     30 H81        57.0614   72.9109   23.8302 H         1 SUB1        0.064
     31 H91        59.2941   73.7592   24.2029 H         1 SUB1        0.210
     32 H101       58.7857   74.4461   20.2438 H         1 SUB1        0.057
     33 H121       57.7367   73.4329   17.7799 H         1 SUB1        0.089
     34 H131       55.4578   73.7792   16.6441 H         1 SUB1        0.227
     35 H161       51.6229   74.8090   17.6023 H         1 SUB1        0.181
     36 H162       53.0379   74.3118   16.6363 H         1 SUB1        0.181
     37 H181       53.0650   75.2375   21.9100 H         1 SUB1        0.096
@<TRIPOS>BOND
     1    2    1 1  
     2    3    2 1  
     3    4    3 1  
     4    4    5 1  
     5    8    4 1  
     6    5   10 1  
     7    6    7 1  
     8    6    8 1  
     9    6   10 1  
    10    8    9 1  
    11   10   11 1  
    12   11   12 2  
    13   11   20 1  
    14   12   13 1  
    15   13   14 1  
    16   14   15 ar 
    17   14   20 ar 
    18   15   16 1  
    19   15   17 ar 
    20   17   18 ar 
    21   18   19 ar 
    22   19   20 ar 
    23    1   21 1  
    24    1   22 1  
    25    1   23 1  
    26    3   24 1  
    27    3   25 1  
    28    4   26 1  
    29    5   27 1  
    30    6   28 1  
    31    7   29 1  
    32    8   30 1  
    33    9   31 1  
    34   10   32 1  
    35   12   33 1  
    36   13   34 1  
    37   16   35 1  
    38   16   36 1  
    39   18   37 1  
@<TRIPOS>SUBSTRUCTURE
     1 SUB1        1 GROUP

