### 
### Created by X-TOOL on Mon Oct 24 23:18:31 2005
### 

@<TRIPOS>MOLECULE
1fjs_ligand
   62    65     1     0     0
SMALL
GAST_HUCK


@<TRIPOS>ATOM
      1 C1          5.1670    9.4980   22.6840 C.ar      1 SUB1        0.190
      2 C2          4.7310    8.9980   21.4340 C.ar      1 SUB1        0.104
      3 C3          5.4490    7.9160   20.8570 C.ar      1 SUB1        0.191
      4 C4          6.5520    7.3730   21.5290 C.ar      1 SUB1        0.195
      5 N5          6.9080    7.8760   22.6980 N.ar      1 SUB1       -0.265
      6 C6          6.2790    8.8930   23.3080 C.ar      1 SUB1        0.192
      7 O11         8.7690   10.6520   23.1460 O.3       1 SUB1       -0.336
      8 O1          6.7270    9.3140   24.4840 O.3       1 SUB1       -0.252
      9 C11         7.9970    9.3070   24.8900 C.ar      1 SUB1        0.150
     10 C12         8.2880    8.5680   26.0390 C.ar      1 SUB1        0.018
     11 C13         9.6040    8.4850   26.5530 C.ar      1 SUB1        0.168
     12 C14        10.6400    9.1830   25.8600 C.ar      1 SUB1       -0.026
     13 C15        10.3510    9.9210   24.7000 C.ar      1 SUB1       -0.036
     14 C16         9.0240    9.9810   24.2100 C.ar      1 SUB1        0.122
     15 C17         9.8480    7.7430   27.7040 C.cat     1 SUB1        0.308
     16 N11         8.8450    7.1710   28.4040 N.pl3     1 SUB1       -0.201
     17 N12        11.0680    7.5150   28.1710 N.pl3     1 SUB1       -0.201
     18 O2          7.2120    6.3890   20.9760 O.3       1 SUB1       -0.247
     19 C21         6.9160    5.1320   20.6630 C.ar      1 SUB1        0.125
     20 C22         6.0020    4.4760   21.5340 C.ar      1 SUB1       -0.021
     21 C23         5.6300    3.1400   21.2940 C.ar      1 SUB1       -0.061
     22 C24         6.1770    2.4660   20.1900 C.ar      1 SUB1       -0.050
     23 C25         7.0910    3.1210   19.3150 C.ar      1 SUB1        0.031
     24 C26         7.4470    4.4460   19.5700 C.ar      1 SUB1       -0.007
     25 C27         7.6220    2.4620   18.2090 C.2       1 SUB1        0.113
     26 N21         8.7210    1.6960   18.1090 N.pl3     1 SUB1       -0.283
     27 C30         9.6460    1.3530   19.1300 C.3       1 SUB1        0.024
     28 N22         7.0060    2.5470   17.0210 N.2       1 SUB1       -0.357
     29 C28         8.8780    1.2220   16.7790 C.3       1 SUB1        0.040
     30 C29         7.6770    1.8230   16.0210 C.3       1 SUB1        0.005
     31 N31         3.6490    9.5560   20.8000 N.3       1 SUB1       -0.237
     32 C32         2.2900    9.1450   21.1650 C.3       1 SUB1        0.058
     33 C33         1.9080    9.2410   22.6240 C.2       1 SUB1        0.047
     34 O34         1.3480   10.2660   23.1250 O.co2     1 SUB1       -0.565
     35 O35         2.1520    8.1850   23.4590 O.co2     1 SUB1       -0.565
     36 C36         3.8580   10.5430   19.7630 C.3       1 SUB1        0.011
     37 H71         7.8411   10.5936   22.9509 H         1 SUB1        0.245
     38 H101        7.4868    8.0456   26.5492 H         1 SUB1        0.057
     39 H121       11.6573    9.1429   26.2322 H         1 SUB1        0.055
     40 H131       11.1446   10.4449   24.1797 H         1 SUB1        0.051
     41 H161        9.0546    6.6268   29.2530 H         1 SUB1        0.192
     42 H162        7.8703    7.2789   28.0890 H         1 SUB1        0.192
     43 H171       11.8863    7.9172   27.6919 H         1 SUB1        0.192
     44 H172       11.1973    6.9357   29.0128 H         1 SUB1        0.192
     45 H201        5.5909    5.0068   22.3851 H         1 SUB1        0.061
     46 H211        4.9305    2.6379   21.9526 H         1 SUB1        0.061
     47 H221        5.9005    1.4350   20.0013 H         1 SUB1        0.060
     48 H241        8.1450    4.9488   18.9105 H         1 SUB1        0.062
     49 H271       10.4332    0.7093   18.7104 H         1 SUB1        0.049
     50 H272        9.1221    0.8149   19.9338 H         1 SUB1        0.049
     51 H273       10.0994    2.2689   19.5368 H         1 SUB1        0.049
     52 H291        8.8475    0.1228   16.7501 H         1 SUB1        0.054
     53 H292        9.8271    1.5740   16.3485 H         1 SUB1        0.054
     54 H301        7.0346    1.0322   15.6063 H         1 SUB1        0.035
     55 H302        8.0124    2.4860   15.2099 H         1 SUB1        0.035
     56 H321        2.1684    8.0953   20.8595 H         1 SUB1        0.070
     57 H322        1.5898    9.7756   20.5975 H         1 SUB1        0.070
     58 H361        4.9365   10.7172   19.6347 H         1 SUB1        0.045
     59 H362        3.3659   11.4845   20.0483 H         1 SUB1        0.045
     60 H363        3.4306   10.1777   18.8176 H         1 SUB1        0.045
     61 F1          4.5580   10.4970   23.2650 F         1 SUB1       -0.200
     62 F2          5.1090    7.4180   19.7160 F         1 SUB1       -0.200
@<TRIPOS>BOND
     1    1    6 ar 
     2    1    2 ar 
     3    2   31 1  
     4    2    3 ar 
     5    3    4 ar 
     6    4   18 1  
     7    4    5 ar 
     8    5    6 ar 
     9    6    8 1  
    10    8    9 1  
    11    9   14 ar 
    12    9   10 ar 
    13   10   11 ar 
    14   11   15 1  
    15   11   12 ar 
    16   12   13 ar 
    17   13   14 ar 
    18   14    7 1  
    19   15   17 1  
    20   15   16 1  
    21   18   19 1  
    22   19   24 ar 
    23   19   20 ar 
    24   20   21 ar 
    25   21   22 ar 
    26   22   23 ar 
    27   23   25 1  
    28   23   24 ar 
    29   25   28 2  
    30   25   26 1  
    31   26   29 1  
    32   26   27 1  
    33   29   30 1  
    34   30   28 1  
    35   31   36 1  
    36   31   32 1  
    37   32   33 1  
    38   33   35 2  
    39   33   34 2  
    40    7   37 1  
    41   10   38 1  
    42   12   39 1  
    43   13   40 1  
    44   16   41 1  
    45   16   42 1  
    46   17   43 1  
    47   17   44 1  
    48   20   45 1  
    49   21   46 1  
    50   22   47 1  
    51   24   48 1  
    52   27   49 1  
    53   27   50 1  
    54   27   51 1  
    55   29   52 1  
    56   29   53 1  
    57   30   54 1  
    58   30   55 1  
    59   32   56 1  
    60   32   57 1  
    61   36   58 1  
    62   36   59 1  
    63   36   60 1  
    64    3   62 1  
    65    1   61 1  
@<TRIPOS>SUBSTRUCTURE
     1 SUB1        1 GROUP

