### 
### Created by X-TOOL on Mon Oct 24 22:01:10 2005
### 

@<TRIPOS>MOLECULE
1h46_ligand
   38    39     1     0     0
SMALL
GAST_HUCK


@<TRIPOS>ATOM
      1 C1          3.9310    9.0750   25.8320 C.ar      1 SUB1        0.105
      2 C2          4.0120    9.7700   24.6360 C.ar      1 SUB1       -0.034
      3 C3          3.4940   11.0710   24.5410 C.ar      1 SUB1       -0.074
      4 C4          2.8940   11.7180   25.6300 C.ar      1 SUB1       -0.068
      5 C5          2.2160   11.6720   27.9920 C.ar      1 SUB1       -0.059
      6 C6          2.1610   10.9560   29.1890 C.ar      1 SUB1       -0.064
      7 C7          2.6580    9.6600   29.3120 C.ar      1 SUB1       -0.063
      8 C8          3.2460    9.0320   28.2190 C.ar      1 SUB1       -0.053
      9 C9          3.3220    9.7170   27.0170 C.ar      1 SUB1        0.018
     10 C10         2.7870   11.0870   26.8670 C.ar      1 SUB1       -0.026
     11 O1          4.4140    7.8060   25.9980 O.3       1 SUB1       -0.307
     12 C11         5.1050    7.1650   24.8980 C.3       1 SUB1        0.116
     13 C12         5.7800    5.8750   25.3090 C.3       1 SUB1        0.142
     14 O2          6.3770    6.0290   26.6000 O.3       1 SUB1       -0.367
     15 C13         6.8660    5.5380   24.3220 C.2       1 SUB1        0.030
     16 N1          7.2460    4.2580   24.2600 N.2       1 SUB1       -0.343
     17 C14         7.1920    3.3470   25.4010 C.3       1 SUB1        0.005
     18 C15         6.8380    1.9490   24.8980 C.3       1 SUB1       -0.054
     19 C16         8.5500    3.2940   26.0960 C.3       1 SUB1       -0.054
     20 H21         4.4763    9.3081   23.7722 H         1 SUB1        0.050
     21 H31         3.5602   11.5931   23.5933 H         1 SUB1        0.058
     22 H41         2.5079   12.7235   25.5078 H         1 SUB1        0.049
     23 H51         1.8160   12.6781   27.9397 H         1 SUB1        0.060
     24 H61         1.7140   11.4267   30.0571 H         1 SUB1        0.061
     25 H71         2.5863    9.1405   30.2607 H         1 SUB1        0.059
     26 H81         3.6377    8.0250   28.3060 H         1 SUB1        0.063
     27 H121        4.3795    6.9333   24.1044 H         1 SUB1        0.068
     28 H122        5.8772    7.8471   24.5127 H         1 SUB1        0.068
     29 H131        5.0446    5.0572   25.3272 H         1 SUB1        0.090
     30 H141        5.7047    6.2479   27.2344 H         1 SUB1        0.215
     31 H151        7.3196    6.2998   23.6897 H         1 SUB1        0.123
     32 H171        6.4377    3.6934   26.1228 H         1 SUB1        0.040
     33 H181        6.7964    1.2601   25.7545 H         1 SUB1        0.024
     34 H182        5.8554    1.9658   24.4039 H         1 SUB1        0.024
     35 H183        7.6063    1.5982   24.1933 H         1 SUB1        0.024
     36 H191        8.4883    2.6041   26.9505 H         1 SUB1        0.024
     37 H192        9.3158    2.9292   25.3957 H         1 SUB1        0.024
     38 H193        8.8231    4.2945   26.4625 H         1 SUB1        0.024
@<TRIPOS>BOND
     1    2    1 ar 
     2    1    9 ar 
     3    1   11 1  
     4    3    2 ar 
     5    4    3 ar 
     6   10    4 ar 
     7    5    6 ar 
     8   10    5 ar 
     9    6    7 ar 
    10    7    8 ar 
    11    8    9 ar 
    12    9   10 ar 
    13   11   12 1  
    14   12   13 1  
    15   13   14 1  
    16   13   15 1  
    17   15   16 2  
    18   16   17 1  
    19   17   18 1  
    20   17   19 1  
    21    2   20 1  
    22    3   21 1  
    23    4   22 1  
    24    5   23 1  
    25    6   24 1  
    26    7   25 1  
    27    8   26 1  
    28   12   27 1  
    29   12   28 1  
    30   13   29 1  
    31   14   30 1  
    32   15   31 1  
    33   17   32 1  
    34   18   33 1  
    35   18   34 1  
    36   18   35 1  
    37   19   36 1  
    38   19   37 1  
    39   19   38 1  
@<TRIPOS>SUBSTRUCTURE
     1 SUB1        1 GROUP

