### 
### Created by X-TOOL on Tue Oct 25 01:55:19 2005
### 

@<TRIPOS>MOLECULE
1i7z_ligand
   43    45     1     0     0
SMALL
GAST_HUCK


@<TRIPOS>ATOM
      1 C1         40.3620    4.8820   50.1180 C.3       1 SUB1        0.066
      2 O5         39.6820    4.2280   49.0120 O.3       1 SUB1       -0.280
      3 C6         40.1310    4.4390   47.7590 C.2       1 SUB1        0.241
      4 O7         41.2660    4.7520   47.4970 O.2       1 SUB1       -0.370
      5 C8         38.9430    4.2070   46.8010 C.3       1 SUB1        0.106
      6 C10        39.4460    3.4330   45.5100 C.3       1 SUB1        0.034
      7 N12        40.5100    4.2460   44.8810 N.3       1 SUB1       -0.297
      8 C14        41.3640    3.4710   43.9470 C.3       1 SUB1       -0.012
      9 C18        38.3560    3.2370   44.4180 C.3       1 SUB1       -0.033
     10 C21        38.5320    4.4870   43.5100 C.3       1 SUB1       -0.036
     11 C24        39.6850    5.2640   44.1930 C.3       1 SUB1        0.013
     12 C26        39.1480    6.2560   45.2890 C.3       1 SUB1       -0.004
     13 C29        38.2790    5.5110   46.3060 C.3       1 SUB1        0.110
     14 O1         37.9450    6.3730   47.4520 O.3       1 SUB1       -0.271
     15 C2         36.9150    6.0730   48.2820 C.2       1 SUB1        0.264
     16 O3         36.0530    5.2800   48.0160 O.2       1 SUB1       -0.357
     17 C4         36.9850    6.8630   49.5910 C.ar      1 SUB1        0.062
     18 C5         36.0250    6.5910   50.6020 C.ar      1 SUB1       -0.041
     19 C7         36.0760    7.3130   51.8230 C.ar      1 SUB1       -0.056
     20 C9         37.0400    8.2650   52.0360 C.ar      1 SUB1       -0.057
     21 C11        37.9830    8.5380   51.0520 C.ar      1 SUB1       -0.056
     22 C13        37.9560    7.8350   49.8230 C.ar      1 SUB1       -0.041
     23 H11        39.8731    4.6057   51.0639 H         1 SUB1        0.058
     24 H12        40.3131    5.9728   49.9850 H         1 SUB1        0.058
     25 H13        41.4142    4.5623   50.1421 H         1 SUB1        0.058
     26 H51        38.1893    3.6018   47.3260 H         1 SUB1        0.060
     27 H61        39.8375    2.4507   45.8129 H         1 SUB1        0.049
     28 H81        42.1305    4.1323   43.5166 H         1 SUB1        0.039
     29 H82        40.7422    3.0565   43.1398 H         1 SUB1        0.039
     30 H83        41.8524    2.6499   44.4922 H         1 SUB1        0.039
     31 H91        37.3509    3.2123   44.8642 H         1 SUB1        0.028
     32 H92        38.5283    2.3104   43.8508 H         1 SUB1        0.028
     33 H101       38.8064    4.1945   42.4857 H         1 SUB1        0.028
     34 H102       37.6116    5.0888   43.4853 H         1 SUB1        0.028
     35 H111       40.2734    5.8129   43.4430 H         1 SUB1        0.046
     36 H121       38.5472    7.0399   44.8048 H         1 SUB1        0.031
     37 H122       40.0006    6.7164   45.8097 H         1 SUB1        0.031
     38 H131       37.3401    5.2383   45.8020 H         1 SUB1        0.068
     39 H181       35.2606    5.8391   50.4425 H         1 SUB1        0.067
     40 H191       35.3442    7.1095   52.5964 H         1 SUB1        0.063
     41 H201       37.0666    8.8063   52.9748 H         1 SUB1        0.065
     42 H211       38.7421    9.2920   51.2261 H         1 SUB1        0.063
     43 H221       38.6938    8.0540   49.0596 H         1 SUB1        0.067
@<TRIPOS>BOND
     1    1    2 1  
     2    2    3 1  
     3    3    5 1  
     4    3    4 2  
     5    5   13 1  
     6    5    6 1  
     7    6    9 1  
     8    6    7 1  
     9    7   11 1  
    10    7    8 1  
    11   11   12 1  
    12   11   10 1  
    13   10    9 1  
    14   12   13 1  
    15   13   14 1  
    16   14   15 1  
    17   15   17 1  
    18   15   16 2  
    19   17   22 ar 
    20   17   18 ar 
    21   18   19 ar 
    22   19   20 ar 
    23   20   21 ar 
    24   21   22 ar 
    25    1   23 1  
    26    1   24 1  
    27    1   25 1  
    28    5   26 1  
    29    6   27 1  
    30    8   28 1  
    31    8   29 1  
    32    8   30 1  
    33    9   31 1  
    34    9   32 1  
    35   10   33 1  
    36   10   34 1  
    37   11   35 1  
    38   12   36 1  
    39   12   37 1  
    40   13   38 1  
    41   18   39 1  
    42   19   40 1  
    43   20   41 1  
    44   21   42 1  
    45   22   43 1  
@<TRIPOS>SUBSTRUCTURE
     1 SUB1        1 GROUP

