### 
### Created by X-TOOL on Mon Oct 24 22:51:39 2005
### 

@<TRIPOS>MOLECULE
1f3e_ligand
   22    23     1     0     0
SMALL
GAST_HUCK


@<TRIPOS>ATOM
      1 H21        15.1601   16.8962   25.0778 H         1 SUB1        0.215
      2 N1         15.8130   17.0340   24.3330 N.am      1 SUB1       -0.186
      3 C2         15.4100   16.8310   23.0590 C.2       1 SUB1        0.212
      4 O3         14.2620   16.4840   22.8180 O.2       1 SUB1       -0.394
      5 C4         16.3980   17.0440   21.9070 C.ar      1 SUB1        0.074
      6 C5         16.0490   16.8630   20.5380 C.ar      1 SUB1        0.050
      7 C6         17.0210   17.0850   19.5410 C.ar      1 SUB1       -0.018
      8 C7         18.3310   17.4810   19.8690 C.ar      1 SUB1        0.034
      9 C8         18.6610   17.6670   21.2200 C.ar      1 SUB1       -0.032
     10 C9         17.7070   17.4550   22.2340 C.ar      1 SUB1        0.049
     11 C10        18.0910   17.6500   23.6870 C.2       1 SUB1        0.224
     12 O11        19.2290   18.0040   23.9540 O.2       1 SUB1       -0.381
     13 N12        17.1690   17.4470   24.6490 N.am      1 SUB1       -0.182
     14 N13        19.2570   17.7000   18.8950 N.pl3     1 SUB1       -0.336
     15 N14        14.8030   16.4740   20.1640 N.pl3     1 SUB1       -0.334
     16 H71        16.7535   16.9477   18.4995 H         1 SUB1        0.045
     17 H91        19.6644   17.9783   21.4870 H         1 SUB1        0.048
     18 H131       17.4255   17.5844   25.6057 H         1 SUB1        0.216
     19 H141       19.0065   17.5611   17.9056 H         1 SUB1        0.173
     20 H142       20.2080   18.0046   19.1476 H         1 SUB1        0.173
     21 H151       14.0796   16.3070   20.8780 H         1 SUB1        0.174
     22 H152       14.5812   16.3459   19.1663 H         1 SUB1        0.174
@<TRIPOS>BOND
     1    2   13 1  
     2    2    3 am 
     3    3    5 1  
     4    3    4 2  
     5    5   10 ar 
     6    5    6 ar 
     7    6   15 1  
     8    6    7 ar 
     9    7    8 ar 
    10    8   14 1  
    11    8    9 ar 
    12    9   10 ar 
    13   10   11 1  
    14   11   13 am 
    15   11   12 2  
    16    2    1 1  
    17    7   16 1  
    18    9   17 1  
    19   13   18 1  
    20   14   19 1  
    21   14   20 1  
    22   15   21 1  
    23   15   22 1  
@<TRIPOS>SUBSTRUCTURE
     1 SUB1        1 GROUP

