### 
### Created by X-TOOL on Mon Oct 24 23:50:30 2005
### 

@<TRIPOS>MOLECULE
2qwb_ligand
   39    39     1     0     0
SMALL
GAST_HUCK


@<TRIPOS>ATOM
      1 C1         23.7280   19.8370   64.9840 C.2       1 SUB1        0.184
      2 C2         24.5860   18.6640   64.5290 C.3       1 SUB1        0.209
      3 C3         23.6070   17.6050   63.9200 C.3       1 SUB1        0.002
      4 C4         24.2190   16.8050   62.7910 C.3       1 SUB1        0.074
      5 C5         25.7570   16.8310   62.8300 C.3       1 SUB1        0.094
      6 C6         26.2740   18.2280   62.6740 C.3       1 SUB1        0.098
      7 C7         27.7770   18.3750   62.9660 C.3       1 SUB1        0.110
      8 C8         28.2180   19.8470   62.7670 C.3       1 SUB1        0.106
      9 C9         29.7330   19.9880   63.0740 C.3       1 SUB1        0.073
     10 C10        26.9900   15.0050   61.7830 C.2       1 SUB1        0.173
     11 C11        27.4530   14.2730   60.5880 C.3       1 SUB1        0.026
     12 N5         26.2350   16.0890   61.6450 N.am      1 SUB1       -0.279
     13 O1A        22.5170   19.7150   65.2880 O.co2     1 SUB1       -0.461
     14 O1B        24.3390   20.9240   64.9930 O.co2     1 SUB1       -0.461
     15 O2         25.2890   18.1400   65.6500 O.3       1 SUB1       -0.419
     16 O4         23.7990   15.4950   62.8360 O.3       1 SUB1       -0.391
     17 O6         25.5780   19.1040   63.5680 O.3       1 SUB1       -0.396
     18 O7         28.0060   17.9880   64.2750 O.3       1 SUB1       -0.387
     19 O8         27.9290   20.0430   61.4080 O.3       1 SUB1       -0.387
     20 O9         30.4070   19.4510   62.0060 O.3       1 SUB1       -0.392
     21 O10        27.3030   14.5510   62.8850 O.2       1 SUB1       -0.397
     22 H31        22.7200   18.1297   63.5354 H         1 SUB1        0.019
     23 H32        23.3048   16.9096   64.7170 H         1 SUB1        0.019
     24 H41        23.8876   17.2491   61.8408 H         1 SUB1        0.060
     25 H51        26.1260   16.3813   63.7636 H         1 SUB1        0.061
     26 H61        26.0886   18.5446   61.6370 H         1 SUB1        0.063
     27 H71        28.3498   17.7293   62.2842 H         1 SUB1        0.065
     28 H81        27.6441   20.5372   63.4027 H         1 SUB1        0.064
     29 H91        29.9851   19.4409   63.9944 H         1 SUB1        0.058
     30 H92        29.9977   21.0489   63.1938 H         1 SUB1        0.058
     31 H111       28.0610   13.4106   60.8990 H         1 SUB1        0.047
     32 H112       28.0599   14.9421   59.9604 H         1 SUB1        0.047
     33 H113       26.5833   13.9206   60.0140 H         1 SUB1        0.047
     34 H121       25.9875   16.4063   60.7295 H         1 SUB1        0.186
     35 H151       25.8304   17.4111   65.3704 H         1 SUB1        0.189
     36 H161       24.1945   15.0120   62.1198 H         1 SUB1        0.210
     37 H181       27.5043   18.5430   64.8605 H         1 SUB1        0.210
     38 H191       28.4295   19.4263   60.8868 H         1 SUB1        0.210
     39 H201       30.1772   19.9265   61.2164 H         1 SUB1        0.209
@<TRIPOS>BOND
     1    1   14 2  
     2    1   13 2  
     3    1    2 1  
     4    2   17 1  
     5    2   15 1  
     6    2    3 1  
     7    3    4 1  
     8    4   16 1  
     9    4    5 1  
    10    5   12 1  
    11    5    6 1  
    12    6   17 1  
    13    6    7 1  
    14    7   18 1  
    15    7    8 1  
    16    8   19 1  
    17    8    9 1  
    18    9   20 1  
    19   12   10 am 
    20   10   21 2  
    21   10   11 1  
    22    3   22 1  
    23    3   23 1  
    24    4   24 1  
    25    5   25 1  
    26    6   26 1  
    27    7   27 1  
    28    8   28 1  
    29    9   29 1  
    30    9   30 1  
    31   11   31 1  
    32   11   32 1  
    33   11   33 1  
    34   12   34 1  
    35   15   35 1  
    36   16   36 1  
    37   18   37 1  
    38   19   38 1  
    39   20   39 1  
@<TRIPOS>SUBSTRUCTURE
     1 SUB1        1 GROUP

