### 
### Created by X-TOOL on Mon Oct 24 22:41:09 2005
### 

@<TRIPOS>MOLECULE
1caq_ligand
   64    68     1     0     0
SMALL
GAST_HUCK


@<TRIPOS>ATOM
      1 H121       16.5475    9.6268   20.5314 H         1 SUB1        0.051
      2 H131       15.7407    8.0938   22.2814 H         1 SUB1        0.060
      3 H151       14.8751    5.1213   19.3251 H         1 SUB1        0.060
      4 H161        8.1982    2.2468   19.8233 H         1 SUB1        0.222
      5 H171       12.8026    4.1647   21.2290 H         1 SUB1        0.075
      6 H181       21.3628   13.5198   12.6295 H         1 SUB1        0.056
      7 H191       17.1925   11.2769   15.8858 H         1 SUB1        0.046
      8 H201       22.2319   12.7912   14.8272 H         1 SUB1        0.060
      9 H241       15.7512    6.6320   17.5714 H         1 SUB1        0.051
     10 H261       18.9025    8.7613   15.8385 H         1 SUB1        0.031
     11 N1         16.9890    9.0060   17.9520 N.3       1 SUB1       -0.252
     12 C2         16.2400    8.6210   20.2690 C.ar      1 SUB1       -0.046
     13 C3         15.7820    7.7660   21.2490 C.ar      1 SUB1       -0.047
     14 C4         15.3750    6.4870   20.9090 C.ar      1 SUB1        0.095
     15 C5         15.3000    6.0830   19.5890 C.ar      1 SUB1       -0.047
     16 N7          8.6120    2.9830   20.4130 N.pl3     1 SUB1       -0.289
     17 C8         12.3680    4.9770   21.8300 C.3       1 SUB1        0.081
     18 C10        20.7400   12.9320   13.2940 C.ar      1 SUB1       -0.069
     19 C11        18.1680   10.7810   15.9970 C.3       1 SUB1       -0.004
     20 C12        21.2210   12.5320   14.5340 C.ar      1 SUB1       -0.069
     21 O1         15.7780    5.7560   23.3430 O.2       1 SUB1       -0.152
     22 O2         15.1780    4.0470   21.6730 O.2       1 SUB1       -0.152
     23 C1         16.3100    8.1960   18.9350 C.ar      1 SUB1        0.029
     24 C6         15.7830    6.9410   18.6100 C.ar      1 SUB1       -0.046
     25 S          15.0170    5.3500   22.1940 S.o2      1 SUB1        0.065
     26 C7         17.9670    9.3090   15.6520 C.3       1 SUB1       -0.023
     27 C13        18.5830   10.9320   17.4580 C.3       1 SUB1       -0.023
     28 C15        17.5660   10.2930   18.3870 C.3       1 SUB1        0.020
     29 C18        16.8540    8.7120   16.5100 C.3       1 SUB1        0.020
     30 C14        20.4150   11.8000   15.4050 C.ar      1 SUB1       -0.060
     31 C16        19.1110   11.4660   15.0470 C.ar      1 SUB1       -0.040
     32 C17        18.6440   11.8360   13.7820 C.ar      1 SUB1       -0.060
     33 C19        19.4500   12.5710   12.9120 C.ar      1 SUB1       -0.069
     34 N          13.4060    5.4880   22.7010 N.am      1 SUB1       -0.231
     35 C20        11.2250    4.3780   22.6600 C.3       1 SUB1       -0.005
     36 C9         11.8860    6.0480   20.8650 C.2       1 SUB1        0.051
     37 O3         11.8320    7.2990   21.3820 O.co2     1 SUB1       -0.564
     38 O4         11.5670    5.7640   19.7590 O.co2     1 SUB1       -0.564
     39 C21         6.5640    6.1450   20.6610 C.ar      1 SUB1       -0.077
     40 C22         6.8650    4.8350   20.2560 C.ar      1 SUB1       -0.044
     41 C23         8.0340    4.2350   20.6570 C.ar      1 SUB1        0.060
     42 C24         8.8960    4.9350   21.5390 C.ar      1 SUB1       -0.021
     43 C25         8.5990    6.2190   21.9380 C.ar      1 SUB1       -0.075
     44 C26         7.4230    6.8330   21.5150 C.ar      1 SUB1       -0.079
     45 C27         9.7990    2.8810   21.0680 C.2       1 SUB1        0.017
     46 C28        10.0320    4.0640   21.7800 C.2       1 SUB1       -0.041
     47 H262       17.6947    9.2188   14.5901 H         1 SUB1        0.031
     48 H271       19.5588   10.4462   17.6057 H         1 SUB1        0.031
     49 H272       18.6660   12.0022   17.6985 H         1 SUB1        0.031
     50 H281       18.0581   10.1271   19.3567 H         1 SUB1        0.048
     51 H282       16.7367   11.0045   18.5136 H         1 SUB1        0.048
     52 H291       15.8926    9.1176   16.1620 H         1 SUB1        0.048
     53 H292       16.8612    7.6202   16.3766 H         1 SUB1        0.048
     54 H301       20.8058   11.4888   16.3670 H         1 SUB1        0.056
     55 H321       17.6452   11.5488   13.4740 H         1 SUB1        0.056
     56 H331       19.0721   12.8612   11.9383 H         1 SUB1        0.060
     57 H341       13.1782    5.9109   23.5781 H         1 SUB1        0.172
     58 H351       10.9233    5.0999   23.4332 H         1 SUB1        0.040
     59 H352       11.5739    3.4515   23.1394 H         1 SUB1        0.040
     60 H391        5.6581    6.6238   20.3072 H         1 SUB1        0.053
     61 H401        6.1710    4.2937   19.6232 H         1 SUB1        0.054
     62 H431        9.2843    6.7547   22.5849 H         1 SUB1        0.054
     63 H441        7.1786    7.8356   21.8467 H         1 SUB1        0.051
     64 H451       10.4623    2.0176   21.0429 H         1 SUB1        0.079
@<TRIPOS>BOND
     1   12    1 1  
     2   36   38 2  
     3   17   36 1  
     4   36   37 2  
     5   17   35 1  
     6   35   46 1  
     7   46   45 2  
     8   46   42 1  
     9   42   43 ar 
    10   42   41 ar 
    11   41   16 1  
    12   41   40 ar 
    13   40   39 ar 
    14   44   39 ar 
    15   43   44 ar 
    16   45   16 1  
    17   13    2 1  
    18   15    3 1  
    19   16    4 1  
    20   17    5 1  
    21   11   29 1  
    22   11   28 1  
    23   23   11 1  
    24   24   23 ar 
    25   12   23 ar 
    26   13   12 ar 
    27   14   13 ar 
    28   25   14 1  
    29   14   15 ar 
    30   15   24 ar 
    31   25   21 2  
    32   25   22 2  
    33   34   25 1  
    34   28   27 1  
    35   27   19 1  
    36   26   19 1  
    37   19   31 1  
    38   31   32 ar 
    39   31   30 ar 
    40   30   20 ar 
    41   20   18 ar 
    42   33   18 ar 
    43   32   33 ar 
    44   29   26 1  
    45   34   17 1  
    46   18    6 1  
    47   19    7 1  
    48   20    8 1  
    49   24    9 1  
    50   26   10 1  
    51   26   47 1  
    52   27   48 1  
    53   27   49 1  
    54   28   50 1  
    55   28   51 1  
    56   29   52 1  
    57   29   53 1  
    58   30   54 1  
    59   32   55 1  
    60   33   56 1  
    61   34   57 1  
    62   35   58 1  
    63   35   59 1  
    64   39   60 1  
    65   40   61 1  
    66   43   62 1  
    67   44   63 1  
    68   45   64 1  
@<TRIPOS>SUBSTRUCTURE
     1 SUB1        1 GROUP

