1caq_ligand
  -I-interpret- 

 64 68  0  0  0  0  0  0  0  0999 V2000
   16.5475    9.6268   20.5314 H   0  0  0  0  0
   15.7407    8.0938   22.2814 H   0  0  0  0  0
   14.8751    5.1213   19.3251 H   0  0  0  0  0
    8.1982    2.2468   19.8233 H   0  0  0  0  0
   12.8026    4.1647   21.2290 H   0  0  0  0  0
   21.3628   13.5198   12.6295 H   0  0  0  0  0
   17.1925   11.2769   15.8858 H   0  0  0  0  0
   22.2319   12.7912   14.8272 H   0  0  0  0  0
   15.7512    6.6320   17.5714 H   0  0  0  0  0
   18.9025    8.7613   15.8385 H   0  0  0  0  0
   16.9890    9.0060   17.9520 N   0  0  0  0  0
   16.2400    8.6210   20.2690 C   0  0  0  0  0
   15.7820    7.7660   21.2490 C   0  0  0  0  0
   15.3750    6.4870   20.9090 C   0  0  0  0  0
   15.3000    6.0830   19.5890 C   0  0  0  0  0
    8.6120    2.9830   20.4130 N   0  0  0  0  0
   12.3680    4.9770   21.8300 C   0  0  0  0  0
   20.7400   12.9320   13.2940 C   0  0  0  0  0
   18.1680   10.7810   15.9970 C   0  0  0  0  0
   21.2210   12.5320   14.5340 C   0  0  0  0  0
   15.7780    5.7560   23.3430 O   0  0  0  0  0
   15.1780    4.0470   21.6730 O   0  0  0  0  0
   16.3100    8.1960   18.9350 C   0  0  0  0  0
   15.7830    6.9410   18.6100 C   0  0  0  0  0
   15.0170    5.3500   22.1940 S   0  0  0  0  0
   17.9670    9.3090   15.6520 C   0  0  0  0  0
   18.5830   10.9320   17.4580 C   0  0  0  0  0
   17.5660   10.2930   18.3870 C   0  0  0  0  0
   16.8540    8.7120   16.5100 C   0  0  0  0  0
   20.4150   11.8000   15.4050 C   0  0  0  0  0
   19.1110   11.4660   15.0470 C   0  0  0  0  0
   18.6440   11.8360   13.7820 C   0  0  0  0  0
   19.4500   12.5710   12.9120 C   0  0  0  0  0
   13.4060    5.4880   22.7010 N   0  0  0  0  0
   11.2250    4.3780   22.6600 C   0  0  0  0  0
   11.8860    6.0480   20.8650 C   0  0  0  0  0
   11.8320    7.2990   21.3820 O   0  5  0  0  0
   11.5670    5.7640   19.7590 O   0  0  0  0  0
    6.5640    6.1450   20.6610 C   0  0  0  0  0
    6.8650    4.8350   20.2560 C   0  0  0  0  0
    8.0340    4.2350   20.6570 C   0  0  0  0  0
    8.8960    4.9350   21.5390 C   0  0  0  0  0
    8.5990    6.2190   21.9380 C   0  0  0  0  0
    7.4230    6.8330   21.5150 C   0  0  0  0  0
    9.7990    2.8810   21.0680 C   0  0  0  0  0
   10.0320    4.0640   21.7800 C   0  0  0  0  0
   17.6947    9.2188   14.5901 H   0  0  0  0  0
   19.5588   10.4462   17.6057 H   0  0  0  0  0
   18.6660   12.0022   17.6985 H   0  0  0  0  0
   18.0581   10.1271   19.3567 H   0  0  0  0  0
   16.7367   11.0045   18.5136 H   0  0  0  0  0
   15.8926    9.1176   16.1620 H   0  0  0  0  0
   16.8612    7.6202   16.3766 H   0  0  0  0  0
   20.8058   11.4888   16.3670 H   0  0  0  0  0
   17.6452   11.5488   13.4740 H   0  0  0  0  0
   19.0721   12.8612   11.9383 H   0  0  0  0  0
   13.1782    5.9109   23.5781 H   0  0  0  0  0
   10.9233    5.0999   23.4332 H   0  0  0  0  0
   11.5739    3.4515   23.1394 H   0  0  0  0  0
    5.6581    6.6238   20.3072 H   0  0  0  0  0
    6.1710    4.2937   19.6232 H   0  0  0  0  0
    9.2843    6.7547   22.5849 H   0  0  0  0  0
    7.1786    7.8356   21.8467 H   0  0  0  0  0
   10.4623    2.0176   21.0429 H   0  0  0  0  0
 12  1  1  0  0  0
 36 38  2  0  0  0
 17 36  1  0  0  0
 36 37  1  0  0  0
 17 35  1  0  0  0
 35 46  1  0  0  0
 46 45  2  0  0  0
 46 42  1  0  0  0
 42 43  4  0  0  0
 42 41  4  0  0  0
 41 16  1  0  0  0
 41 40  4  0  0  0
 40 39  4  0  0  0
 44 39  4  0  0  0
 43 44  4  0  0  0
 45 16  1  0  0  0
 13  2  1  0  0  0
 15  3  1  0  0  0
 16  4  1  0  0  0
 17  5  1  0  0  0
 11 29  1  0  0  0
 11 28  1  0  0  0
 23 11  1  0  0  0
 24 23  4  0  0  0
 12 23  4  0  0  0
 13 12  4  0  0  0
 14 13  4  0  0  0
 25 14  1  0  0  0
 14 15  4  0  0  0
 15 24  4  0  0  0
 25 21  2  0  0  0
 25 22  2  0  0  0
 34 25  1  0  0  0
 28 27  1  0  0  0
 27 19  1  0  0  0
 26 19  1  0  0  0
 19 31  1  0  0  0
 31 32  4  0  0  0
 31 30  4  0  0  0
 30 20  4  0  0  0
 20 18  4  0  0  0
 33 18  4  0  0  0
 32 33  4  0  0  0
 29 26  1  0  0  0
 34 17  1  0  0  0
 18  6  1  0  0  0
 19  7  1  0  0  0
 20  8  1  0  0  0
 24  9  1  0  0  0
 26 10  1  0  0  0
 26 47  1  0  0  0
 27 48  1  0  0  0
 27 49  1  0  0  0
 28 50  1  0  0  0
 28 51  1  0  0  0
 29 52  1  0  0  0
 29 53  1  0  0  0
 30 54  1  0  0  0
 32 55  1  0  0  0
 33 56  1  0  0  0
 34 57  1  0  0  0
 35 58  1  0  0  0
 35 59  1  0  0  0
 39 60  1  0  0  0
 40 61  1  0  0  0
 43 62  1  0  0  0
 44 63  1  0  0  0
 45 64  1  0  0  0
M  END
$$$$
