### 
### Created by X-TOOL on Sun Jun  3 12:23:44 2007
### 

@<TRIPOS>MOLECULE
2fxu_ligand
  118   120     1     0     0
SMALL
GAST_HUCK


@<TRIPOS>ATOM
      1 O5         14.2060  -12.9030   37.1060 O.2       1 SUB1       -0.397
      2 C18        14.1450  -13.6130   36.1170 C.2       1 SUB1        0.181
      3 C16        14.9100  -13.2100   34.8880 C.3       1 SUB1        0.073
      4 C17        14.2890  -11.9090   34.3280 C.3       1 SUB1       -0.043
      5 C15        16.4200  -13.1110   35.1420 C.3       1 SUB1        0.094
      6 O4         16.7020  -11.9690   35.9460 O.3       1 SUB1       -0.387
      7 C14        16.9360  -14.4070   35.7850 C.3       1 SUB1        0.059
      8 N1         18.3900  -14.3980   35.9460 N.am      1 SUB1       -0.284
      9 C13        19.2530  -14.8950   35.0720 C.2       1 SUB1        0.179
     10 O3         18.8500  -15.3550   34.0040 O.2       1 SUB1       -0.397
     11 C12        20.7270  -14.8180   35.3960 C.3       1 SUB1        0.064
     12 C11        21.3760  -16.1950   35.3760 C.3       1 SUB1        0.078
     13 C9         22.8710  -16.1350   35.6890 C.3       1 SUB1       -0.015
     14 C10        23.6060  -15.1710   34.7820 C.3       1 SUB1       -0.060
     15 C8         23.1220  -15.8010   37.1530 C.3       1 SUB1       -0.045
     16 C7         22.4060  -16.7970   38.0370 C.3       1 SUB1       -0.024
     17 O2         20.7060  -17.0560   36.3090 O.3       1 SUB1       -0.368
     18 C6         20.9190  -16.8690   37.7130 C.3       1 SUB1        0.074
     19 C5         20.3280  -18.0630   38.4590 C.3       1 SUB1        0.043
     20 C4         18.8430  -17.9100   38.7180 C.2       1 SUB1        0.106
     21 O1         18.3510  -16.7980   38.7610 O.2       1 SUB1       -0.396
     22 C3         17.9560  -19.0770   38.9350 C.2       1 SUB1       -0.020
     23 C2         18.3940  -20.3380   38.9170 C.2       1 SUB1       -0.063
     24 C1         17.4290  -21.4790   39.1430 C.3       1 SUB1       -0.026
     25 N2         13.4460  -14.7330   36.0670 N.am      1 SUB1       -0.287
     26 C19        12.6480  -15.2540   37.1700 C.3       1 SUB1        0.031
     27 C20        11.5820  -16.1680   36.5890 C.3       1 SUB1       -0.030
     28 C21        10.5960  -16.6390   37.6570 C.3       1 SUB1       -0.024
     29 C22         9.5280  -17.5070   37.0230 C.3       1 SUB1        0.065
     30 C23         8.4390  -17.9690   37.9930 C.3       1 SUB1       -0.017
     31 C24         7.6670  -16.7860   38.5830 C.3       1 SUB1       -0.060
     32 C25         7.5490  -18.9770   37.2710 C.3       1 SUB1       -0.043
     33 C26         8.3760  -20.1140   36.6740 C.3       1 SUB1        0.002
     34 C27         9.4710  -19.5690   35.7580 C.3       1 SUB1        0.171
     35 O6         10.2180  -18.6530   36.5480 O.3       1 SUB1       -0.345
     36 C28        10.4530  -20.6510   35.3200 C.3       1 SUB1        0.002
     37 C29        11.4970  -20.1190   34.3430 C.3       1 SUB1       -0.046
     38 C30        10.7760  -19.4760   33.1660 C.3       1 SUB1       -0.026
     39 C31         9.8600  -18.3890   33.6990 C.3       1 SUB1        0.062
     40 O7          8.8850  -18.9710   34.5970 O.3       1 SUB1       -0.345
     41 C32         9.1100  -17.7360   32.5690 C.3       1 SUB1       -0.025
     42 C33         8.3550  -16.4850   33.0120 C.3       1 SUB1       -0.045
     43 C34         7.7170  -15.7120   31.8470 C.3       1 SUB1       -0.038
     44 C35         7.1380  -14.3600   32.2750 C.3       1 SUB1       -0.059
     45 C36         6.6240  -16.5560   31.2220 C.2       1 SUB1       -0.104
     46 C37         6.6480  -17.0360   29.9610 C.2       1 SUB1       -0.056
     47 C38         7.7600  -16.7640   28.9730 C.3       1 SUB1       -0.038
     48 C39         5.5000  -17.8720   29.4540 C.3       1 SUB1        0.077
     49 C40         5.9740  -19.3010   29.2200 C.3       1 SUB1       -0.030
     50 O8          5.0180  -17.3110   28.2270 O.3       1 SUB1       -0.381
     51 H          14.8204  -13.9880   34.1298 H         1 SUB1        0.056
     52 H          14.4475  -11.0973   35.0381 H         1 SUB1        0.026
     53 H          14.7635  -11.6607   33.3786 H         1 SUB1        0.026
     54 H          13.2199  -12.0552   34.1740 H         1 SUB1        0.026
     55 H          16.9425  -12.9871   34.1934 H         1 SUB1        0.064
     56 H          16.2435  -12.0490   36.7856 H         1 SUB1        0.210
     57 H          16.6704  -15.2397   35.1337 H         1 SUB1        0.055
     58 H          16.4844  -14.5007   36.7726 H         1 SUB1        0.055
     59 H          18.7679  -13.9775   36.7950 H         1 SUB1        0.185
     60 H          20.8391  -14.3982   36.3957 H         1 SUB1        0.053
     61 H          21.2135  -14.1963   34.6444 H         1 SUB1        0.053
     62 H          21.2772  -16.5950   34.3669 H         1 SUB1        0.062
     63 H          23.2705  -17.1308   35.4967 H         1 SUB1        0.032
     64 H          23.4885  -15.4878   33.7457 H         1 SUB1        0.023
     65 H          23.1926  -14.1701   34.9064 H         1 SUB1        0.023
     66 H          24.6642  -15.1635   35.0432 H         1 SUB1        0.023
     67 H          22.7475  -14.7991   37.3629 H         1 SUB1        0.027
     68 H          24.1924  -15.8457   37.3540 H         1 SUB1        0.027
     69 H          22.5171  -16.4789   39.0736 H         1 SUB1        0.029
     70 H          22.8425  -17.7816   37.8695 H         1 SUB1        0.029
     71 H          20.4440  -15.9353   38.0141 H         1 SUB1        0.062
     72 H          20.8309  -18.1390   39.4231 H         1 SUB1        0.050
     73 H          20.4715  -18.9494   37.8412 H         1 SUB1        0.050
     74 H          16.8965  -18.8975   39.1178 H         1 SUB1        0.046
     75 H          19.4493  -20.5450   38.7390 H         1 SUB1        0.085
     76 H          16.9684  -21.3745   40.1254 H         1 SUB1        0.046
     77 H          16.6567  -21.4577   38.3741 H         1 SUB1        0.046
     78 H          17.9683  -22.4248   39.0920 H         1 SUB1        0.046
     79 H          13.4661  -15.2686   35.1991 H         1 SUB1        0.185
     80 H          12.1830  -14.4344   37.7179 H         1 SUB1        0.052
     81 H          13.2809  -15.8076   37.8636 H         1 SUB1        0.052
     82 H          12.0744  -17.0440   36.1667 H         1 SUB1        0.029
     83 H          11.0284  -15.6116   35.8327 H         1 SUB1        0.029
     84 H          10.1266  -15.7718   38.1215 H         1 SUB1        0.029
     85 H          11.1303  -17.2178   38.4104 H         1 SUB1        0.029
     86 H           9.0142  -16.9316   36.2530 H         1 SUB1        0.060
     87 H           8.8874  -18.4636   38.8546 H         1 SUB1        0.032
     88 H           8.3562  -16.1374   39.1237 H         1 SUB1        0.023
     89 H           7.1939  -16.2244   37.7774 H         1 SUB1        0.023
     90 H           6.9031  -17.1568   39.2664 H         1 SUB1        0.023
     91 H           7.0267  -18.4646   36.4630 H         1 SUB1        0.027
     92 H           6.8455  -19.3979   37.9894 H         1 SUB1        0.027
     93 H           7.7178  -20.7568   36.0895 H         1 SUB1        0.032
     94 H           8.8433  -20.6713   37.4859 H         1 SUB1        0.032
     95 H           9.8895  -21.4383   34.8193 H         1 SUB1        0.032
     96 H          10.9723  -21.0169   36.2058 H         1 SUB1        0.032
     97 H          12.1272  -20.9359   33.9914 H         1 SUB1        0.027
     98 H          12.1288  -19.3823   34.8391 H         1 SUB1        0.027
     99 H          10.1925  -20.2259   32.6319 H         1 SUB1        0.029
    100 H          11.5010  -19.0462   32.4748 H         1 SUB1        0.029
    101 H          10.4725  -17.6516   34.2179 H         1 SUB1        0.060
    102 H           8.3803  -18.4526   32.1920 H         1 SUB1        0.029
    103 H           9.8356  -17.4396   31.8115 H         1 SUB1        0.029
    104 H           9.0734  -15.8208   33.4925 H         1 SUB1        0.028
    105 H           7.5501  -16.8044   33.6740 H         1 SUB1        0.028
    106 H           8.5072  -15.5073   31.1247 H         1 SUB1        0.037
    107 H           6.3682  -14.5185   33.0302 H         1 SUB1        0.025
    108 H           7.9333  -13.7404   32.6894 H         1 SUB1        0.025
    109 H           6.7020  -13.8623   31.4088 H         1 SUB1        0.025
    110 H           5.7550  -16.7925   31.8360 H         1 SUB1        0.025
    111 H           7.8402  -15.6900   28.8048 H         1 SUB1        0.038
    112 H           8.7007  -17.1416   29.3737 H         1 SUB1        0.038
    113 H           7.5378  -17.2650   28.0308 H         1 SUB1        0.038
    114 H           4.6961  -17.8808   30.1900 H         1 SUB1        0.074
    115 H           6.7763  -19.3001   28.4821 H         1 SUB1        0.028
    116 H           6.3413  -19.7187   30.1574 H         1 SUB1        0.028
    117 H           5.1424  -19.9029   28.8536 H         1 SUB1        0.028
    118 H           4.7214  -16.4114   28.3825 H         1 SUB1        0.213
@<TRIPOS>BOND
     1    1    2 2  
     2    2    3 1  
     3    2   25 am 
     4    3    4 1  
     5    3    5 1  
     6    5    6 1  
     7    5    7 1  
     8    7    8 1  
     9    8    9 am 
    10    9   10 2  
    11    9   11 1  
    12   11   12 1  
    13   12   13 1  
    14   12   17 1  
    15   13   14 1  
    16   13   15 1  
    17   15   16 1  
    18   16   18 1  
    19   17   18 1  
    20   18   19 1  
    21   19   20 1  
    22   20   21 2  
    23   20   22 1  
    24   22   23 2  
    25   23   24 1  
    26   25   26 1  
    27   26   27 1  
    28   27   28 1  
    29   28   29 1  
    30   29   30 1  
    31   29   35 1  
    32   30   31 1  
    33   30   32 1  
    34   32   33 1  
    35   33   34 1  
    36   34   35 1  
    37   34   36 1  
    38   34   40 1  
    39   36   37 1  
    40   37   38 1  
    41   38   39 1  
    42   39   40 1  
    43   39   41 1  
    44   41   42 1  
    45   42   43 1  
    46   43   44 1  
    47   43   45 1  
    48   45   46 2  
    49   46   47 1  
    50   46   48 1  
    51   48   49 1  
    52   48   50 1  
    53    3   51 1  
    54    4   52 1  
    55    4   53 1  
    56    4   54 1  
    57    5   55 1  
    58    6   56 1  
    59    7   57 1  
    60    7   58 1  
    61    8   59 1  
    62   11   60 1  
    63   11   61 1  
    64   12   62 1  
    65   13   63 1  
    66   14   64 1  
    67   14   65 1  
    68   14   66 1  
    69   15   67 1  
    70   15   68 1  
    71   16   69 1  
    72   16   70 1  
    73   18   71 1  
    74   19   72 1  
    75   19   73 1  
    76   22   74 1  
    77   23   75 1  
    78   24   76 1  
    79   24   77 1  
    80   24   78 1  
    81   25   79 1  
    82   26   80 1  
    83   26   81 1  
    84   27   82 1  
    85   27   83 1  
    86   28   84 1  
    87   28   85 1  
    88   29   86 1  
    89   30   87 1  
    90   31   88 1  
    91   31   89 1  
    92   31   90 1  
    93   32   91 1  
    94   32   92 1  
    95   33   93 1  
    96   33   94 1  
    97   36   95 1  
    98   36   96 1  
    99   37   97 1  
   100   37   98 1  
   101   38   99 1  
   102   38  100 1  
   103   39  101 1  
   104   41  102 1  
   105   41  103 1  
   106   42  104 1  
   107   42  105 1  
   108   43  106 1  
   109   44  107 1  
   110   44  108 1  
   111   44  109 1  
   112   45  110 1  
   113   47  111 1  
   114   47  112 1  
   115   47  113 1  
   116   48  114 1  
   117   49  115 1  
   118   49  116 1  
   119   49  117 1  
   120   50  118 1  
@<TRIPOS>SUBSTRUCTURE
     1 SUB1        1 GROUP

