2fxu_ligand
  -I-interpret- 

118120  0  0  0  0  0  0  0  0999 V2000
   14.2060  -12.9030   37.1060 O   0  0  0  0  0
   14.1450  -13.6130   36.1170 C   0  0  0  0  0
   14.9100  -13.2100   34.8880 C   0  0  0  0  0
   14.2890  -11.9090   34.3280 C   0  0  0  0  0
   16.4200  -13.1110   35.1420 C   0  0  0  0  0
   16.7020  -11.9690   35.9460 O   0  0  0  0  0
   16.9360  -14.4070   35.7850 C   0  0  0  0  0
   18.3900  -14.3980   35.9460 N   0  0  0  0  0
   19.2530  -14.8950   35.0720 C   0  0  0  0  0
   18.8500  -15.3550   34.0040 O   0  0  0  0  0
   20.7270  -14.8180   35.3960 C   0  0  0  0  0
   21.3760  -16.1950   35.3760 C   0  0  0  0  0
   22.8710  -16.1350   35.6890 C   0  0  0  0  0
   23.6060  -15.1710   34.7820 C   0  0  0  0  0
   23.1220  -15.8010   37.1530 C   0  0  0  0  0
   22.4060  -16.7970   38.0370 C   0  0  0  0  0
   20.7060  -17.0560   36.3090 O   0  0  0  0  0
   20.9190  -16.8690   37.7130 C   0  0  0  0  0
   20.3280  -18.0630   38.4590 C   0  0  0  0  0
   18.8430  -17.9100   38.7180 C   0  0  0  0  0
   18.3510  -16.7980   38.7610 O   0  0  0  0  0
   17.9560  -19.0770   38.9350 C   0  0  0  0  0
   18.3940  -20.3380   38.9170 C   0  0  0  0  0
   17.4290  -21.4790   39.1430 C   0  0  0  0  0
   13.4460  -14.7330   36.0670 N   0  0  0  0  0
   12.6480  -15.2540   37.1700 C   0  0  0  0  0
   11.5820  -16.1680   36.5890 C   0  0  0  0  0
   10.5960  -16.6390   37.6570 C   0  0  0  0  0
    9.5280  -17.5070   37.0230 C   0  0  0  0  0
    8.4390  -17.9690   37.9930 C   0  0  0  0  0
    7.6670  -16.7860   38.5830 C   0  0  0  0  0
    7.5490  -18.9770   37.2710 C   0  0  0  0  0
    8.3760  -20.1140   36.6740 C   0  0  0  0  0
    9.4710  -19.5690   35.7580 C   0  0  0  0  0
   10.2180  -18.6530   36.5480 O   0  0  0  0  0
   10.4530  -20.6510   35.3200 C   0  0  0  0  0
   11.4970  -20.1190   34.3430 C   0  0  0  0  0
   10.7760  -19.4760   33.1660 C   0  0  0  0  0
    9.8600  -18.3890   33.6990 C   0  0  0  0  0
    8.8850  -18.9710   34.5970 O   0  0  0  0  0
    9.1100  -17.7360   32.5690 C   0  0  0  0  0
    8.3550  -16.4850   33.0120 C   0  0  0  0  0
    7.7170  -15.7120   31.8470 C   0  0  0  0  0
    7.1380  -14.3600   32.2750 C   0  0  0  0  0
    6.6240  -16.5560   31.2220 C   0  0  0  0  0
    6.6480  -17.0360   29.9610 C   0  0  0  0  0
    7.7600  -16.7640   28.9730 C   0  0  0  0  0
    5.5000  -17.8720   29.4540 C   0  0  0  0  0
    5.9740  -19.3010   29.2200 C   0  0  0  0  0
    5.0180  -17.3110   28.2270 O   0  0  0  0  0
   14.8204  -13.9880   34.1298 H   0  0  0  0  0
   14.4475  -11.0973   35.0381 H   0  0  0  0  0
   14.7635  -11.6607   33.3786 H   0  0  0  0  0
   13.2199  -12.0552   34.1740 H   0  0  0  0  0
   16.9425  -12.9871   34.1934 H   0  0  0  0  0
   16.2435  -12.0490   36.7856 H   0  0  0  0  0
   16.6704  -15.2397   35.1337 H   0  0  0  0  0
   16.4844  -14.5007   36.7726 H   0  0  0  0  0
   18.7679  -13.9775   36.7950 H   0  0  0  0  0
   20.8391  -14.3982   36.3957 H   0  0  0  0  0
   21.2135  -14.1963   34.6444 H   0  0  0  0  0
   21.2772  -16.5950   34.3669 H   0  0  0  0  0
   23.2705  -17.1308   35.4967 H   0  0  0  0  0
   23.4885  -15.4878   33.7457 H   0  0  0  0  0
   23.1926  -14.1701   34.9064 H   0  0  0  0  0
   24.6642  -15.1635   35.0432 H   0  0  0  0  0
   22.7475  -14.7991   37.3629 H   0  0  0  0  0
   24.1924  -15.8457   37.3540 H   0  0  0  0  0
   22.5171  -16.4789   39.0736 H   0  0  0  0  0
   22.8425  -17.7816   37.8695 H   0  0  0  0  0
   20.4440  -15.9353   38.0141 H   0  0  0  0  0
   20.8309  -18.1390   39.4231 H   0  0  0  0  0
   20.4715  -18.9494   37.8412 H   0  0  0  0  0
   16.8965  -18.8975   39.1178 H   0  0  0  0  0
   19.4493  -20.5450   38.7390 H   0  0  0  0  0
   16.9684  -21.3745   40.1254 H   0  0  0  0  0
   16.6567  -21.4577   38.3741 H   0  0  0  0  0
   17.9683  -22.4248   39.0920 H   0  0  0  0  0
   13.4661  -15.2686   35.1991 H   0  0  0  0  0
   12.1830  -14.4344   37.7179 H   0  0  0  0  0
   13.2809  -15.8076   37.8636 H   0  0  0  0  0
   12.0744  -17.0440   36.1667 H   0  0  0  0  0
   11.0284  -15.6116   35.8327 H   0  0  0  0  0
   10.1266  -15.7718   38.1215 H   0  0  0  0  0
   11.1303  -17.2178   38.4104 H   0  0  0  0  0
    9.0142  -16.9316   36.2530 H   0  0  0  0  0
    8.8874  -18.4636   38.8546 H   0  0  0  0  0
    8.3562  -16.1374   39.1237 H   0  0  0  0  0
    7.1939  -16.2244   37.7774 H   0  0  0  0  0
    6.9031  -17.1568   39.2664 H   0  0  0  0  0
    7.0267  -18.4646   36.4630 H   0  0  0  0  0
    6.8455  -19.3979   37.9894 H   0  0  0  0  0
    7.7178  -20.7568   36.0895 H   0  0  0  0  0
    8.8433  -20.6713   37.4859 H   0  0  0  0  0
    9.8895  -21.4383   34.8193 H   0  0  0  0  0
   10.9723  -21.0169   36.2058 H   0  0  0  0  0
   12.1272  -20.9359   33.9914 H   0  0  0  0  0
   12.1288  -19.3823   34.8391 H   0  0  0  0  0
   10.1925  -20.2259   32.6319 H   0  0  0  0  0
   11.5010  -19.0462   32.4748 H   0  0  0  0  0
   10.4725  -17.6516   34.2179 H   0  0  0  0  0
    8.3803  -18.4526   32.1920 H   0  0  0  0  0
    9.8356  -17.4396   31.8115 H   0  0  0  0  0
    9.0734  -15.8208   33.4925 H   0  0  0  0  0
    7.5501  -16.8044   33.6740 H   0  0  0  0  0
    8.5072  -15.5073   31.1247 H   0  0  0  0  0
    6.3682  -14.5185   33.0302 H   0  0  0  0  0
    7.9333  -13.7404   32.6894 H   0  0  0  0  0
    6.7020  -13.8623   31.4088 H   0  0  0  0  0
    5.7550  -16.7925   31.8360 H   0  0  0  0  0
    7.8402  -15.6900   28.8048 H   0  0  0  0  0
    8.7007  -17.1416   29.3737 H   0  0  0  0  0
    7.5378  -17.2650   28.0308 H   0  0  0  0  0
    4.6961  -17.8808   30.1900 H   0  0  0  0  0
    6.7763  -19.3001   28.4821 H   0  0  0  0  0
    6.3413  -19.7187   30.1574 H   0  0  0  0  0
    5.1424  -19.9029   28.8536 H   0  0  0  0  0
    4.7214  -16.4114   28.3825 H   0  0  0  0  0
  1  2  2  0  0  0
  2  3  1  0  0  0
  2 25  1  0  0  0
  3  4  1  0  0  0
  3  5  1  0  0  0
  5  6  1  0  0  0
  5  7  1  0  0  0
  7  8  1  0  0  0
  8  9  1  0  0  0
  9 10  2  0  0  0
  9 11  1  0  0  0
 11 12  1  0  0  0
 12 13  1  0  0  0
 12 17  1  0  0  0
 13 14  1  0  0  0
 13 15  1  0  0  0
 15 16  1  0  0  0
 16 18  1  0  0  0
 17 18  1  0  0  0
 18 19  1  0  0  0
 19 20  1  0  0  0
 20 21  2  0  0  0
 20 22  1  0  0  0
 22 23  2  0  0  0
 23 24  1  0  0  0
 25 26  1  0  0  0
 26 27  1  0  0  0
 27 28  1  0  0  0
 28 29  1  0  0  0
 29 30  1  0  0  0
 29 35  1  0  0  0
 30 31  1  0  0  0
 30 32  1  0  0  0
 32 33  1  0  0  0
 33 34  1  0  0  0
 34 35  1  0  0  0
 34 36  1  0  0  0
 34 40  1  0  0  0
 36 37  1  0  0  0
 37 38  1  0  0  0
 38 39  1  0  0  0
 39 40  1  0  0  0
 39 41  1  0  0  0
 41 42  1  0  0  0
 42 43  1  0  0  0
 43 44  1  0  0  0
 43 45  1  0  0  0
 45 46  2  0  0  0
 46 47  1  0  0  0
 46 48  1  0  0  0
 48 49  1  0  0  0
 48 50  1  0  0  0
  3 51  1  0  0  0
  4 52  1  0  0  0
  4 53  1  0  0  0
  4 54  1  0  0  0
  5 55  1  0  0  0
  6 56  1  0  0  0
  7 57  1  0  0  0
  7 58  1  0  0  0
  8 59  1  0  0  0
 11 60  1  0  0  0
 11 61  1  0  0  0
 12 62  1  0  0  0
 13 63  1  0  0  0
 14 64  1  0  0  0
 14 65  1  0  0  0
 14 66  1  0  0  0
 15 67  1  0  0  0
 15 68  1  0  0  0
 16 69  1  0  0  0
 16 70  1  0  0  0
 18 71  1  0  0  0
 19 72  1  0  0  0
 19 73  1  0  0  0
 22 74  1  0  0  0
 23 75  1  0  0  0
 24 76  1  0  0  0
 24 77  1  0  0  0
 24 78  1  0  0  0
 25 79  1  0  0  0
 26 80  1  0  0  0
 26 81  1  0  0  0
 27 82  1  0  0  0
 27 83  1  0  0  0
 28 84  1  0  0  0
 28 85  1  0  0  0
 29 86  1  0  0  0
 30 87  1  0  0  0
 31 88  1  0  0  0
 31 89  1  0  0  0
 31 90  1  0  0  0
 32 91  1  0  0  0
 32 92  1  0  0  0
 33 93  1  0  0  0
 33 94  1  0  0  0
 36 95  1  0  0  0
 36 96  1  0  0  0
 37 97  1  0  0  0
 37 98  1  0  0  0
 38 99  1  0  0  0
 38100  1  0  0  0
 39101  1  0  0  0
 41102  1  0  0  0
 41103  1  0  0  0
 42104  1  0  0  0
 42105  1  0  0  0
 43106  1  0  0  0
 44107  1  0  0  0
 44108  1  0  0  0
 44109  1  0  0  0
 45110  1  0  0  0
 47111  1  0  0  0
 47112  1  0  0  0
 47113  1  0  0  0
 48114  1  0  0  0
 49115  1  0  0  0
 49116  1  0  0  0
 49117  1  0  0  0
 50118  1  0  0  0
M  END
$$$$
