### 
### Created by X-TOOL on Mon Oct 24 22:40:32 2005
### 

@<TRIPOS>MOLECULE
3kiv_ligand
   22    21     1     0     0
SMALL
GAST_HUCK


@<TRIPOS>ATOM
      1 C1          8.2050   11.9810    4.0400 C.2       1 SUB1        0.028
      2 O1          7.7650   12.6130    3.0210 O.co2     1 SUB1       -0.567
      3 O2          8.2330   10.7450    4.2470 O.co2     1 SUB1       -0.567
      4 C2          8.8920   12.9020    5.0800 C.3       1 SUB1       -0.014
      5 C3          9.5420   14.0690    4.2640 C.3       1 SUB1       -0.041
      6 C4         10.0720   15.1500    5.2410 C.3       1 SUB1       -0.045
      7 C5         10.7850   14.5700    6.4320 C.3       1 SUB1       -0.012
      8 C6         10.9690   15.2760    7.6940 C.3       1 SUB1       -0.035
      9 N6         12.0190   14.7800    8.6560 N.4       1 SUB1        0.219
     10 H41         9.6641   12.3456    5.6316 H         1 SUB1        0.048
     11 H42         8.1495   13.2987    5.7881 H         1 SUB1        0.048
     12 H51         8.7887   14.5146    3.5978 H         1 SUB1        0.030
     13 H52        10.3761   13.6766    3.6638 H         1 SUB1        0.030
     14 H61         9.2199   15.7462    5.5993 H         1 SUB1        0.027
     15 H62        10.7720   15.8010    4.6967 H         1 SUB1        0.027
     16 H71        11.7965   14.3182    6.0808 H         1 SUB1        0.032
     17 H72        10.2435   13.6461    6.6832 H         1 SUB1        0.032
     18 H81        10.0055   15.2478    8.2240 H         1 SUB1        0.081
     19 H82        11.2219   16.3179    7.4480 H         1 SUB1        0.081
     20 H91        12.0268   15.3659    9.4762 H         1 SUB1        0.199
     21 H92        12.9234   14.8116    8.2119 H         1 SUB1        0.199
     22 H93        11.8087   13.8310    8.9230 H         1 SUB1        0.199
@<TRIPOS>BOND
     1    1    4 1  
     2    1    3 2  
     3    1    2 2  
     4    4    5 1  
     5    5    6 1  
     6    6    7 1  
     7    7    8 1  
     8    8    9 1  
     9    4   10 1  
    10    4   11 1  
    11    5   12 1  
    12    5   13 1  
    13    6   14 1  
    14    6   15 1  
    15    7   16 1  
    16    7   17 1  
    17    8   18 1  
    18    8   19 1  
    19    9   20 1  
    20    9   21 1  
    21    9   22 1  
@<TRIPOS>SUBSTRUCTURE
     1 SUB1        1 GROUP

