### 
### Created by X-TOOL on Tue Oct 25 01:45:32 2005
### 

@<TRIPOS>MOLECULE
1sln_ligand
   70    71     1     0     0
SMALL
GAST_HUCK


@<TRIPOS>ATOM
      1 C1        -20.8810   92.7570   80.0450 C.3       1 SUB1       -0.010
      2 C2        -20.6740   91.7610   81.2030 C.3       1 SUB1        0.016
      3 C3        -21.4490   92.1930   82.4460 C.2       1 SUB1        0.076
      4 O4        -22.5710   92.6880   82.2780 O.co2     1 SUB1       -0.561
      5 O5        -20.9680   92.0520   83.6000 O.co2     1 SUB1       -0.561
      6 N6        -19.2180   91.5520   81.4010 N.4       1 SUB1        0.265
      7 C7        -18.4830   92.7610   81.7960 C.3       1 SUB1        0.071
      8 C8        -17.6010   92.4470   83.0160 C.3       1 SUB1        0.018
      9 C9        -16.6970   93.5990   83.4310 C.3       1 SUB1       -0.012
     10 C10       -15.9460   93.4590   84.7170 C.ar      1 SUB1       -0.043
     11 C11       -16.1080   94.3990   85.7320 C.ar      1 SUB1       -0.060
     12 C12       -15.4040   94.2980   86.9130 C.ar      1 SUB1       -0.069
     13 C13       -14.5200   93.2530   87.1000 C.ar      1 SUB1       -0.069
     14 C14       -14.3430   92.3040   86.0990 C.ar      1 SUB1       -0.069
     15 C15       -15.0570   92.4120   84.9130 C.ar      1 SUB1       -0.060
     16 C16       -17.6120   93.1920   80.6250 C.2       1 SUB1        0.227
     17 O17       -17.0520   92.3480   79.9240 O.2       1 SUB1       -0.391
     18 N18       -17.5090   94.4990   80.4140 N.am      1 SUB1       -0.261
     19 C19       -16.6880   95.0260   79.3340 C.3       1 SUB1        0.137
     20 C20       -17.3250   96.2500   78.7240 C.3       1 SUB1       -0.010
     21 C21       -18.7080   96.0660   78.2300 C.3       1 SUB1       -0.030
     22 C22       -19.1180   97.3930   77.7240 C.3       1 SUB1        0.051
     23 N23       -20.4800   97.4260   77.2320 N.pl3     1 SUB1       -0.170
     24 C24       -21.2060   98.5430   77.2000 C.cat     1 SUB1        0.387
     25 N25       -22.4510   98.5220   76.7260 N.pl3     1 SUB1       -0.183
     26 N26       -20.6810   99.6840   77.6540 N.pl3     1 SUB1       -0.183
     27 C27       -15.3180   95.4410   79.8410 C.2       1 SUB1        0.229
     28 O28       -15.1850   95.8800   80.9810 O.2       1 SUB1       -0.382
     29 N29       -14.3380   95.4060   78.9360 N.am      1 SUB1       -0.232
     30 C30       -13.0100   95.7090   79.0520 C.ar      1 SUB1        0.066
     31 C31       -12.1430   95.2530   78.0650 C.ar      1 SUB1       -0.041
     32 C32       -10.7660   95.4940   78.1530 C.ar      1 SUB1       -0.075
     33 C33       -10.2570   96.1960   79.2290 C.ar      1 SUB1       -0.077
     34 C34       -11.1100   96.6600   80.2160 C.ar      1 SUB1       -0.075
     35 C35       -12.4840   96.4150   80.1230 C.ar      1 SUB1       -0.041
     36 H11       -21.9577   92.9195   79.8893 H         1 SUB1        0.032
     37 H12       -20.4352   92.3487   79.1260 H         1 SUB1        0.032
     38 H13       -20.3980   93.7136   80.2933 H         1 SUB1        0.032
     39 H21       -21.0965   90.7938   80.8931 H         1 SUB1        0.107
     40 H61       -18.8270   91.2132   80.5359 H         1 SUB1        0.206
     41 H62       -19.0936   90.8574   82.1208 H         1 SUB1        0.206
     42 H71       -19.1909   93.5638   82.0497 H         1 SUB1        0.110
     43 H81       -16.9691   91.5799   82.7736 H         1 SUB1        0.037
     44 H82       -18.2566   92.1976   83.8634 H         1 SUB1        0.037
     45 H91       -17.3255   94.4980   83.5128 H         1 SUB1        0.043
     46 H92       -15.9560   93.7412   82.6306 H         1 SUB1        0.043
     47 H111      -16.7984   95.2228   85.5911 H         1 SUB1        0.056
     48 H121      -15.5438   95.0372   87.6934 H         1 SUB1        0.060
     49 H131      -13.9642   93.1727   88.0272 H         1 SUB1        0.056
     50 H141      -13.6502   91.4830   86.2441 H         1 SUB1        0.060
     51 H151      -14.9186   91.6717   84.1333 H         1 SUB1        0.056
     52 H181      -18.0046   95.1327   81.0080 H         1 SUB1        0.189
     53 H191      -16.5743   94.2483   78.5645 H         1 SUB1        0.080
     54 H201      -16.7016   96.5704   77.8762 H         1 SUB1        0.031
     55 H202      -17.3399   97.0414   79.4879 H         1 SUB1        0.031
     56 H211      -19.3699   95.7434   79.0472 H         1 SUB1        0.028
     57 H212      -18.7330   95.3203   77.4217 H         1 SUB1        0.028
     58 H221      -18.4437   97.6764   76.9024 H         1 SUB1        0.050
     59 H222      -19.0253   98.1220   78.5425 H         1 SUB1        0.050
     60 H231      -20.9045   96.5508   76.8932 H         1 SUB1        0.198
     61 H251      -23.0081   99.3880   76.7034 H         1 SUB1        0.194
     62 H252      -22.8564   97.6397   76.3822 H         1 SUB1        0.194
     63 H261      -19.7183   99.6982   78.0200 H         1 SUB1        0.194
     64 H262      -21.2388  100.5498   77.6381 H         1 SUB1        0.194
     65 H291      -14.6213   95.1097   78.0239 H         1 SUB1        0.226
     66 H311      -12.5375   94.7045   77.2174 H         1 SUB1        0.050
     67 H321      -10.1007   95.1304   77.3783 H         1 SUB1        0.058
     68 H331       -9.1916   96.3831   79.3002 H         1 SUB1        0.049
     69 H341      -10.7134   97.2126   81.0600 H         1 SUB1        0.058
     70 H351      -13.1464   96.7820   80.8986 H         1 SUB1        0.050
@<TRIPOS>BOND
     1    1    2 1  
     2    2    6 1  
     3    2    3 1  
     4    3    5 2  
     5    3    4 2  
     6    6    7 1  
     7    7   16 1  
     8    7    8 1  
     9    8    9 1  
    10    9   10 1  
    11   10   15 ar 
    12   10   11 ar 
    13   11   12 ar 
    14   12   13 ar 
    15   13   14 ar 
    16   14   15 ar 
    17   16   18 am 
    18   16   17 2  
    19   18   19 1  
    20   19   27 1  
    21   19   20 1  
    22   20   21 1  
    23   21   22 1  
    24   22   23 1  
    25   23   24 1  
    26   24   26 1  
    27   24   25 1  
    28   27   29 am 
    29   27   28 2  
    30   29   30 1  
    31   30   35 ar 
    32   30   31 ar 
    33   31   32 ar 
    34   32   33 ar 
    35   33   34 ar 
    36   34   35 ar 
    37    1   36 1  
    38    1   37 1  
    39    1   38 1  
    40    2   39 1  
    41    6   40 1  
    42    6   41 1  
    43    7   42 1  
    44    8   43 1  
    45    8   44 1  
    46    9   45 1  
    47    9   46 1  
    48   11   47 1  
    49   12   48 1  
    50   13   49 1  
    51   14   50 1  
    52   15   51 1  
    53   18   52 1  
    54   19   53 1  
    55   20   54 1  
    56   20   55 1  
    57   21   56 1  
    58   21   57 1  
    59   22   58 1  
    60   22   59 1  
    61   23   60 1  
    62   25   61 1  
    63   25   62 1  
    64   26   63 1  
    65   26   64 1  
    66   29   65 1  
    67   31   66 1  
    68   32   67 1  
    69   33   68 1  
    70   34   69 1  
    71   35   70 1  
@<TRIPOS>SUBSTRUCTURE
     1 SUB1        1 GROUP

