### 
### Created by X-TOOL on Mon Oct 24 22:51:41 2005
### 

@<TRIPOS>MOLECULE
1b6m_ligand
   92    94     1     0     0
SMALL
GAST_HUCK


@<TRIPOS>ATOM
      1 H421        0.1461   -0.1228   12.2502 H         1 SUB1        0.026
      2 H422        0.8831    0.7950   13.6070 H         1 SUB1        0.026
      3 H423        1.8351   -0.4678   12.7551 H         1 SUB1        0.026
      4 H431       -0.3960    2.0715   11.1758 H         1 SUB1        0.026
      5 H432        0.9151    3.2511   10.8350 H         1 SUB1        0.026
      6 H433        0.4039    2.9410   12.5289 H         1 SUB1        0.026
      7 H441        0.8723    0.3114    9.9019 H         1 SUB1        0.026
      8 H442        2.5912   -0.0063   10.3154 H         1 SUB1        0.026
      9 H443        2.1229    1.5544    9.5592 H         1 SUB1        0.026
     10 H471        4.7612    2.6777   13.3228 H         1 SUB1        0.187
     11 H481        6.0829    0.0604   12.8246 H         1 SUB1        0.061
     12 H491        8.1540    1.2476   13.5389 H         1 SUB1        0.045
     13 H492        7.1854    2.7463   13.7451 H         1 SUB1        0.045
     14 H511        8.0520    0.1397   11.2070 H         1 SUB1        0.056
     15 H521        6.9270    4.1925   11.9679 H         1 SUB1        0.056
     16 H531        8.3265    0.6595    8.8168 H         1 SUB1        0.060
     17 H541        7.2011    4.7240    9.5774 H         1 SUB1        0.060
     18 H551        7.8832    2.9511    7.9921 H         1 SUB1        0.056
     19 H561        5.9567    1.4327   15.5433 H         1 SUB1        0.067
     20 H571        7.2428   -0.9637   14.6435 H         1 SUB1        0.210
     21 H581        4.8277   -1.2363   14.5373 H         1 SUB1        0.084
     22 H582        3.8728    0.2094   15.0112 H         1 SUB1        0.084
     23 H591        4.1983   -0.2360   17.1162 H         1 SUB1        0.204
     24 H592        5.8110   -0.5125   16.9365 H         1 SUB1        0.204
     25 H601        4.7339   -2.3078   17.9541 H         1 SUB1        0.112
     26 H611        3.0887   -2.3608   15.4009 H         1 SUB1        0.049
     27 H612        2.5256   -2.1656   17.0954 H         1 SUB1        0.049
     28 H631        3.0356   -4.1559   18.7166 H         1 SUB1        0.053
     29 H641        3.1102   -6.6140   18.9205 H         1 SUB1        0.052
     30 H651        3.1751   -4.5061   14.4560 H         1 SUB1        0.053
     31 H661        3.2489   -6.9540   14.6552 H         1 SUB1        0.052
     32 H691        3.1332   -9.7914   18.2642 H         1 SUB1        0.061
     33 H692        3.7755   -8.2247   18.8637 H         1 SUB1        0.061
     34 H721        5.8893   -3.9821   18.1212 H         1 SUB1        0.189
     35 H731        6.9468   -5.4789   15.8029 H         1 SUB1        0.080
     36 H761        8.8108   -4.2063   17.8905 H         1 SUB1        0.034
     37 H771        8.5241   -2.6036   16.2209 H         1 SUB1        0.027
     38 H772        8.3483   -3.8355   14.9254 H         1 SUB1        0.027
     39 H781        9.3599   -6.5921   17.4628 H         1 SUB1        0.023
     40 O1          2.8080    1.9690   12.1240 O.3       1 SUB1       -0.258
     41 O2          3.8350   -0.0320   12.0460 O.2       1 SUB1       -0.377
     42 C3          1.0770    0.3200   12.6340 C.3       1 SUB1       -0.032
     43 C4          0.5560    2.4860   11.5390 C.3       1 SUB1       -0.032
     44 C5          1.8090    0.7650   10.2580 C.3       1 SUB1       -0.032
     45 C6          1.5870    1.3710   11.6460 C.3       1 SUB1        0.090
     46 C7          3.8210    1.1580   12.3990 C.2       1 SUB1        0.320
     47 N8          4.8280    1.7130   13.0680 N.am      1 SUB1       -0.255
     48 C9          6.0330    0.9660   13.4470 C.3       1 SUB1        0.084
     49 C10         7.2750    1.8050   13.1830 C.3       1 SUB1        0.007
     50 C11         7.4750    2.1320   11.7460 C.ar      1 SUB1       -0.041
     51 C12         7.8650    1.1460   10.8500 C.ar      1 SUB1       -0.060
     52 C13         7.2350    3.4170   11.2760 C.ar      1 SUB1       -0.060
     53 C14         8.0170    1.4350    9.5080 C.ar      1 SUB1       -0.069
     54 C15         7.3850    3.7170    9.9340 C.ar      1 SUB1       -0.069
     55 C16         7.7720    2.7230    9.0460 C.ar      1 SUB1       -0.069
     56 C17         6.0080    0.5390   14.9040 C.3       1 SUB1        0.119
     57 O18         7.2050   -0.1890   15.1920 O.3       1 SUB1       -0.384
     58 C19         4.8040   -0.3490   15.1870 C.3       1 SUB1       -0.002
     59 N20         4.8920   -0.7540   16.6000 N.4       1 SUB1        0.249
     60 C21         4.6730   -2.2010   16.8610 C.3       1 SUB1        0.075
     61 C22         3.2670   -2.6540   16.4460 C.3       1 SUB1        0.037
     62 C23         3.1210   -4.1510   16.5700 C.ar      1 SUB1       -0.046
     63 C24         3.0910   -4.7670   17.8230 C.ar      1 SUB1       -0.068
     64 C25         3.1310   -6.1480   17.9420 C.ar      1 SUB1       -0.040
     65 C26         3.1690   -4.9630   15.4390 C.ar      1 SUB1       -0.068
     66 C27         3.2090   -6.3390   15.5470 C.ar      1 SUB1       -0.040
     67 C28         3.1980   -6.9280   16.7950 C.ar      1 SUB1        0.084
     68 O29         3.3050   -8.2960   16.8630 O.3       1 SUB1       -0.322
     69 C30         3.7900   -8.9410   18.0290 C.3       1 SUB1        0.071
     70 C31         5.6890   -3.1860   16.2910 C.2       1 SUB1        0.229
     71 O32         5.9960   -3.1750   15.0970 O.2       1 SUB1       -0.391
     72 N33         6.1870   -4.0500   17.1690 N.am      1 SUB1       -0.261
     73 C34         7.1520   -5.1000   16.8150 C.3       1 SUB1        0.133
     74 C35         6.9120   -6.1780   17.8650 C.2       1 SUB1        0.202
     75 O36         7.0470   -5.9220   19.0640 O.2       1 SUB1       -0.394
     76 C37         8.6280   -4.6370   16.8950 C.3       1 SUB1       -0.004
     77 C38         8.8980   -3.5650   15.8390 C.3       1 SUB1       -0.049
     78 C39         9.5670   -5.8310   16.6960 C.3       1 SUB1       -0.058
     79 C40        10.3440   -3.3980   15.4840 C.3       1 SUB1       -0.065
     80 N41         6.5080   -7.3620   17.4150 N.am      1 SUB1       -0.285
     81 C42         6.2540   -8.4570   18.3350 C.3       1 SUB1        0.033
     82 C43         5.2130   -9.4540   17.8450 C.3       1 SUB1       -0.005
     83 H782       10.6108   -5.4955   16.7850 H         1 SUB1        0.023
     84 H783        9.4045   -6.2629   15.6975 H         1 SUB1        0.023
     85 H791       10.4460   -2.6112   14.7220 H         1 SUB1        0.023
     86 H792       10.7359   -4.3460   15.0869 H         1 SUB1        0.023
     87 H793       10.9117   -3.1141   16.3824 H         1 SUB1        0.023
     88 H801        6.3777   -7.5001   16.4332 H         1 SUB1        0.185
     89 H811        7.1985   -8.9965   18.4984 H         1 SUB1        0.052
     90 H812        5.9042   -8.0331   19.2878 H         1 SUB1        0.052
     91 H821        5.3840   -9.6472   16.7757 H         1 SUB1        0.031
     92 H822        5.3272  -10.3910   18.4098 H         1 SUB1        0.031
@<TRIPOS>BOND
     1   42    1 1  
     2   42    2 1  
     3   42    3 1  
     4   43    4 1  
     5   43    5 1  
     6   43    6 1  
     7   44    7 1  
     8   44    8 1  
     9   44    9 1  
    10   47   10 1  
    11   48   11 1  
    12   49   12 1  
    13   49   13 1  
    14   51   14 1  
    15   52   15 1  
    16   53   16 1  
    17   54   17 1  
    18   55   18 1  
    19   56   19 1  
    20   57   20 1  
    21   58   21 1  
    22   58   22 1  
    23   59   23 1  
    24   59   24 1  
    25   60   25 1  
    26   61   26 1  
    27   61   27 1  
    28   63   28 1  
    29   64   29 1  
    30   65   30 1  
    31   66   31 1  
    32   69   32 1  
    33   46   40 1  
    34   40   45 1  
    35   45   42 1  
    36   45   43 1  
    37   45   44 1  
    38   46   41 2  
    39   47   46 am 
    40   48   47 1  
    41   56   48 1  
    42   48   49 1  
    43   49   50 1  
    44   50   52 ar 
    45   50   51 ar 
    46   51   53 ar 
    47   53   55 ar 
    48   54   55 ar 
    49   52   54 ar 
    50   58   56 1  
    51   56   57 1  
    52   59   58 1  
    53   60   59 1  
    54   60   70 1  
    55   61   60 1  
    56   62   61 1  
    57   65   62 ar 
    58   63   62 ar 
    59   64   63 ar 
    60   67   64 ar 
    61   68   67 1  
    62   67   66 ar 
    63   66   65 ar 
    64   68   69 1  
    65   69   82 1  
    66   82   81 1  
    67   81   80 1  
    68   80   74 am 
    69   74   75 2  
    70   74   73 1  
    71   73   76 1  
    72   73   72 1  
    73   72   70 am 
    74   70   71 2  
    75   76   78 1  
    76   76   77 1  
    77   77   79 1  
    78   69   33 1  
    79   72   34 1  
    80   73   35 1  
    81   76   36 1  
    82   77   37 1  
    83   77   38 1  
    84   78   39 1  
    85   78   83 1  
    86   78   84 1  
    87   79   85 1  
    88   79   86 1  
    89   79   87 1  
    90   80   88 1  
    91   81   89 1  
    92   81   90 1  
    93   82   91 1  
    94   82   92 1  
@<TRIPOS>SUBSTRUCTURE
     1 SUB1        1 GROUP

