1b6m_ligand
  -I-interpret- 

 92 94  0  0  0  0  0  0  0  0999 V2000
    0.1461   -0.1228   12.2502 H   0  0  0  0  0
    0.8831    0.7950   13.6070 H   0  0  0  0  0
    1.8351   -0.4678   12.7551 H   0  0  0  0  0
   -0.3960    2.0715   11.1758 H   0  0  0  0  0
    0.9151    3.2511   10.8350 H   0  0  0  0  0
    0.4039    2.9410   12.5289 H   0  0  0  0  0
    0.8723    0.3114    9.9019 H   0  0  0  0  0
    2.5912   -0.0063   10.3154 H   0  0  0  0  0
    2.1229    1.5544    9.5592 H   0  0  0  0  0
    4.7612    2.6777   13.3228 H   0  0  0  0  0
    6.0829    0.0604   12.8246 H   0  0  0  0  0
    8.1540    1.2476   13.5389 H   0  0  0  0  0
    7.1854    2.7463   13.7451 H   0  0  0  0  0
    8.0520    0.1397   11.2070 H   0  0  0  0  0
    6.9270    4.1925   11.9679 H   0  0  0  0  0
    8.3265    0.6595    8.8168 H   0  0  0  0  0
    7.2011    4.7240    9.5774 H   0  0  0  0  0
    7.8832    2.9511    7.9921 H   0  0  0  0  0
    5.9567    1.4327   15.5433 H   0  0  0  0  0
    7.2428   -0.9637   14.6435 H   0  0  0  0  0
    4.8277   -1.2363   14.5373 H   0  0  0  0  0
    3.8728    0.2094   15.0112 H   0  0  0  0  0
    4.1983   -0.2360   17.1162 H   0  0  0  0  0
    5.8110   -0.5125   16.9365 H   0  0  0  0  0
    4.7339   -2.3078   17.9541 H   0  0  0  0  0
    3.0887   -2.3608   15.4009 H   0  0  0  0  0
    2.5256   -2.1656   17.0954 H   0  0  0  0  0
    3.0356   -4.1559   18.7166 H   0  0  0  0  0
    3.1102   -6.6140   18.9205 H   0  0  0  0  0
    3.1751   -4.5061   14.4560 H   0  0  0  0  0
    3.2489   -6.9540   14.6552 H   0  0  0  0  0
    3.1332   -9.7914   18.2642 H   0  0  0  0  0
    3.7755   -8.2247   18.8637 H   0  0  0  0  0
    5.8893   -3.9821   18.1212 H   0  0  0  0  0
    6.9468   -5.4789   15.8029 H   0  0  0  0  0
    8.8108   -4.2063   17.8905 H   0  0  0  0  0
    8.5241   -2.6036   16.2209 H   0  0  0  0  0
    8.3483   -3.8355   14.9254 H   0  0  0  0  0
    9.3599   -6.5921   17.4628 H   0  0  0  0  0
    2.8080    1.9690   12.1240 O   0  0  0  0  0
    3.8350   -0.0320   12.0460 O   0  0  0  0  0
    1.0770    0.3200   12.6340 C   0  0  0  0  0
    0.5560    2.4860   11.5390 C   0  0  0  0  0
    1.8090    0.7650   10.2580 C   0  0  0  0  0
    1.5870    1.3710   11.6460 C   0  0  0  0  0
    3.8210    1.1580   12.3990 C   0  0  0  0  0
    4.8280    1.7130   13.0680 N   0  0  0  0  0
    6.0330    0.9660   13.4470 C   0  0  0  0  0
    7.2750    1.8050   13.1830 C   0  0  0  0  0
    7.4750    2.1320   11.7460 C   0  0  0  0  0
    7.8650    1.1460   10.8500 C   0  0  0  0  0
    7.2350    3.4170   11.2760 C   0  0  0  0  0
    8.0170    1.4350    9.5080 C   0  0  0  0  0
    7.3850    3.7170    9.9340 C   0  0  0  0  0
    7.7720    2.7230    9.0460 C   0  0  0  0  0
    6.0080    0.5390   14.9040 C   0  0  0  0  0
    7.2050   -0.1890   15.1920 O   0  0  0  0  0
    4.8040   -0.3490   15.1870 C   0  0  0  0  0
    4.8920   -0.7540   16.6000 N   0  3  0  0  0
    4.6730   -2.2010   16.8610 C   0  0  0  0  0
    3.2670   -2.6540   16.4460 C   0  0  0  0  0
    3.1210   -4.1510   16.5700 C   0  0  0  0  0
    3.0910   -4.7670   17.8230 C   0  0  0  0  0
    3.1310   -6.1480   17.9420 C   0  0  0  0  0
    3.1690   -4.9630   15.4390 C   0  0  0  0  0
    3.2090   -6.3390   15.5470 C   0  0  0  0  0
    3.1980   -6.9280   16.7950 C   0  0  0  0  0
    3.3050   -8.2960   16.8630 O   0  0  0  0  0
    3.7900   -8.9410   18.0290 C   0  0  0  0  0
    5.6890   -3.1860   16.2910 C   0  0  0  0  0
    5.9960   -3.1750   15.0970 O   0  0  0  0  0
    6.1870   -4.0500   17.1690 N   0  0  0  0  0
    7.1520   -5.1000   16.8150 C   0  0  0  0  0
    6.9120   -6.1780   17.8650 C   0  0  0  0  0
    7.0470   -5.9220   19.0640 O   0  0  0  0  0
    8.6280   -4.6370   16.8950 C   0  0  0  0  0
    8.8980   -3.5650   15.8390 C   0  0  0  0  0
    9.5670   -5.8310   16.6960 C   0  0  0  0  0
   10.3440   -3.3980   15.4840 C   0  0  0  0  0
    6.5080   -7.3620   17.4150 N   0  0  0  0  0
    6.2540   -8.4570   18.3350 C   0  0  0  0  0
    5.2130   -9.4540   17.8450 C   0  0  0  0  0
   10.6108   -5.4955   16.7850 H   0  0  0  0  0
    9.4045   -6.2629   15.6975 H   0  0  0  0  0
   10.4460   -2.6112   14.7220 H   0  0  0  0  0
   10.7359   -4.3460   15.0869 H   0  0  0  0  0
   10.9117   -3.1141   16.3824 H   0  0  0  0  0
    6.3777   -7.5001   16.4332 H   0  0  0  0  0
    7.1985   -8.9965   18.4984 H   0  0  0  0  0
    5.9042   -8.0331   19.2878 H   0  0  0  0  0
    5.3840   -9.6472   16.7757 H   0  0  0  0  0
    5.3272  -10.3910   18.4098 H   0  0  0  0  0
 42  1  1  0  0  0
 42  2  1  0  0  0
 42  3  1  0  0  0
 43  4  1  0  0  0
 43  5  1  0  0  0
 43  6  1  0  0  0
 44  7  1  0  0  0
 44  8  1  0  0  0
 44  9  1  0  0  0
 47 10  1  0  0  0
 48 11  1  0  0  0
 49 12  1  0  0  0
 49 13  1  0  0  0
 51 14  1  0  0  0
 52 15  1  0  0  0
 53 16  1  0  0  0
 54 17  1  0  0  0
 55 18  1  0  0  0
 56 19  1  0  0  0
 57 20  1  0  0  0
 58 21  1  0  0  0
 58 22  1  0  0  0
 59 23  1  0  0  0
 59 24  1  0  0  0
 60 25  1  0  0  0
 61 26  1  0  0  0
 61 27  1  0  0  0
 63 28  1  0  0  0
 64 29  1  0  0  0
 65 30  1  0  0  0
 66 31  1  0  0  0
 69 32  1  0  0  0
 46 40  1  0  0  0
 40 45  1  0  0  0
 45 42  1  0  0  0
 45 43  1  0  0  0
 45 44  1  0  0  0
 46 41  2  0  0  0
 47 46  1  0  0  0
 48 47  1  0  0  0
 56 48  1  0  0  0
 48 49  1  0  0  0
 49 50  1  0  0  0
 50 52  4  0  0  0
 50 51  4  0  0  0
 51 53  4  0  0  0
 53 55  4  0  0  0
 54 55  4  0  0  0
 52 54  4  0  0  0
 58 56  1  0  0  0
 56 57  1  0  0  0
 59 58  1  0  0  0
 60 59  1  0  0  0
 60 70  1  0  0  0
 61 60  1  0  0  0
 62 61  1  0  0  0
 65 62  4  0  0  0
 63 62  4  0  0  0
 64 63  4  0  0  0
 67 64  4  0  0  0
 68 67  1  0  0  0
 67 66  4  0  0  0
 66 65  4  0  0  0
 68 69  1  0  0  0
 69 82  1  0  0  0
 82 81  1  0  0  0
 81 80  1  0  0  0
 80 74  1  0  0  0
 74 75  2  0  0  0
 74 73  1  0  0  0
 73 76  1  0  0  0
 73 72  1  0  0  0
 72 70  1  0  0  0
 70 71  2  0  0  0
 76 78  1  0  0  0
 76 77  1  0  0  0
 77 79  1  0  0  0
 69 33  1  0  0  0
 72 34  1  0  0  0
 73 35  1  0  0  0
 76 36  1  0  0  0
 77 37  1  0  0  0
 77 38  1  0  0  0
 78 39  1  0  0  0
 78 83  1  0  0  0
 78 84  1  0  0  0
 79 85  1  0  0  0
 79 86  1  0  0  0
 79 87  1  0  0  0
 80 88  1  0  0  0
 81 89  1  0  0  0
 81 90  1  0  0  0
 82 91  1  0  0  0
 82 92  1  0  0  0
M  END
$$$$
