### 
### Created by X-TOOL on Tue Oct 25 01:25:29 2005
### 

@<TRIPOS>MOLECULE
1qca_ligand
   84    87     1     0     0
SMALL
GAST_HUCK


@<TRIPOS>ATOM
      1 C1         -0.2410   16.4710   15.9770 C.3       1 SUB1       -0.045
      2 C2         -1.2180   16.0020   17.0800 C.3       1 SUB1       -0.026
      3 C3         -1.7290   14.6010   16.9690 C.3       1 SUB1        0.058
      4 C4         -0.6090   13.5550   16.4850 C.3       1 SUB1       -0.014
      5 C5          0.1980   14.1680   15.3940 C.3       1 SUB1       -0.030
      6 C6          0.9790   13.1370   14.6140 C.3       1 SUB1       -0.049
      7 C7          1.8780   13.6690   13.4630 C.3       1 SUB1       -0.046
      8 C8          1.6100   15.1440   13.1120 C.3       1 SUB1       -0.018
      9 C9          1.7570   15.9960   14.4160 C.3       1 SUB1       -0.003
     10 C10         0.8500   15.4800   15.6280 C.3       1 SUB1       -0.023
     11 C11         1.5380   17.5540   14.0620 C.3       1 SUB1        0.062
     12 C12         2.6000   18.0240   13.0630 C.3       1 SUB1       -0.012
     13 C13         2.5610   17.1960   11.7450 C.3       1 SUB1        0.004
     14 C14         2.7330   15.6930   12.0730 C.3       1 SUB1       -0.007
     15 C15         2.7120   15.1100   10.7000 C.3       1 SUB1       -0.002
     16 C16         3.4150   16.1260    9.7730 C.3       1 SUB1        0.123
     17 C17         3.4310   17.4300   10.5910 C.2       1 SUB1       -0.015
     18 C18        -1.4160   12.3510   16.1600 C.3       1 SUB1       -0.060
     19 C19         1.7630   15.2600   16.8810 C.3       1 SUB1       -0.059
     20 C20         0.2620   15.2980   12.5590 C.3       1 SUB1       -0.058
     21 C21         4.2240   15.5230   12.4730 C.3       1 SUB1       -0.056
     22 C22         4.2290   18.3590   10.0920 C.2       1 SUB1       -0.042
     23 C23         4.4120   19.7030   10.7610 C.3       1 SUB1       -0.026
     24 C24         5.5740   20.6240   10.3970 C.3       1 SUB1       -0.041
     25 C25         6.0130   21.7040   11.3200 C.2       1 SUB1       -0.108
     26 C26         5.3030   22.5780   11.8380 C.2       1 SUB1       -0.087
     27 C27         5.4330   23.7750   12.8540 C.3       1 SUB1       -0.041
     28 C28         3.7270   22.6820   11.5350 C.3       1 SUB1       -0.041
     29 C29         5.0180   18.1410    8.8800 C.2       1 SUB1        0.018
     30 C31         5.3920   14.9770    8.9030 C.2       1 SUB1        0.234
     31 C32         6.7890   14.8630    9.1190 C.3       1 SUB1        0.037
     32 O1          0.2370   17.6070   13.4510 O.3       1 SUB1       -0.391
     33 O2          4.8790   15.8570    9.7960 O.3       1 SUB1       -0.258
     34 O3          4.7480   14.4230    8.1390 O.2       1 SUB1       -0.370
     35 O4          6.2070   18.5770    8.8280 O.co2     1 SUB1       -0.583
     36 O5          4.6050   17.6150    7.7740 O.co2     1 SUB1       -0.583
     37 O6         -2.8510   14.6200   16.0410 O.3       1 SUB1       -0.391
     38 H11        -0.8246   16.6715   15.0664 H         1 SUB1        0.027
     39 H12         0.2381   17.4007   16.3177 H         1 SUB1        0.027
     40 H21        -2.0869   16.6764   17.0653 H         1 SUB1        0.029
     41 H22        -0.6996   16.0928   18.0459 H         1 SUB1        0.029
     42 H31        -2.0866   14.2796   17.9583 H         1 SUB1        0.060
     43 H41         0.0774   13.3115   17.3093 H         1 SUB1        0.033
     44 H51        -0.5834   14.4546   14.6748 H         1 SUB1        0.031
     45 H61         0.2567   12.4330   14.1750 H         1 SUB1        0.027
     46 H62         1.6273   12.6022   15.3237 H         1 SUB1        0.027
     47 H71         1.6952   13.0582   12.5666 H         1 SUB1        0.027
     48 H72         2.9303   13.5683   13.7670 H         1 SUB1        0.027
     49 H91         2.7993   15.8886   14.7507 H         1 SUB1        0.034
     50 H111        1.5751   18.1741   14.9698 H         1 SUB1        0.060
     51 H121        3.5936   17.9155   13.5223 H         1 SUB1        0.032
     52 H122        2.4202   19.0825   12.8239 H         1 SUB1        0.032
     53 H131        1.5398   17.3464   11.3648 H         1 SUB1        0.051
     54 H151        1.6742   14.9525   10.3713 H         1 SUB1        0.033
     55 H152        3.2501   14.1507   10.6876 H         1 SUB1        0.033
     56 H161        2.9699   16.1915    8.7692 H         1 SUB1        0.085
     57 H181       -1.9529   12.0157   17.0596 H         1 SUB1        0.023
     58 H182       -0.7514   11.5478   15.8090 H         1 SUB1        0.023
     59 H183       -2.1414   12.5978   15.3708 H         1 SUB1        0.023
     60 H191        1.1507   14.9046   17.7229 H         1 SUB1        0.023
     61 H192        2.2459   16.2098   17.1542 H         1 SUB1        0.023
     62 H193        2.5336   14.5110   16.6462 H         1 SUB1        0.023
     63 H201        0.1702   14.6952   11.6435 H         1 SUB1        0.023
     64 H202        0.0822   16.3567   12.3205 H         1 SUB1        0.023
     65 H203       -0.4785   14.9577   13.2978 H         1 SUB1        0.023
     66 H211        4.3794   15.9213   13.4865 H         1 SUB1        0.024
     67 H212        4.8592   16.0716   11.7621 H         1 SUB1        0.024
     68 H213        4.4894   14.4557   12.4539 H         1 SUB1        0.024
     69 H231        4.5003   19.5035   11.8391 H         1 SUB1        0.040
     70 H232        3.4916   20.2736   10.5678 H         1 SUB1        0.040
     71 H241        5.3006   21.1134    9.4506 H         1 SUB1        0.036
     72 H242        6.4481   19.9760   10.2357 H         1 SUB1        0.036
     73 H251        7.0731   21.7299   11.5677 H         1 SUB1        0.024
     74 H271        4.4530   24.2590   12.9777 H         1 SUB1        0.038
     75 H272        6.1573   24.5071   12.4674 H         1 SUB1        0.038
     76 H273        5.7794   23.3947   13.8263 H         1 SUB1        0.038
     77 H281        3.4387   21.8979   10.8194 H         1 SUB1        0.038
     78 H282        3.5002   23.6698   11.1076 H         1 SUB1        0.038
     79 H283        3.1641   22.5493   12.4707 H         1 SUB1        0.038
     80 H311        7.2145   14.1498    8.3977 H         1 SUB1        0.048
     81 H312        6.9738   14.5039   10.1422 H         1 SUB1        0.048
     82 H313        7.2623   15.8468    8.9846 H         1 SUB1        0.048
     83 H321        0.0366   18.5046   13.2127 H         1 SUB1        0.210
     84 H371       -3.1991   13.7410   15.9487 H         1 SUB1        0.210
@<TRIPOS>BOND
     1    1   10 1  
     2    1    2 1  
     3    2    3 1  
     4    3   37 1  
     5    3    4 1  
     6    4   18 1  
     7    4    5 1  
     8    5   10 1  
     9    5    6 1  
    10    6    7 1  
    11    7    8 1  
    12    8   20 1  
    13    8   14 1  
    14    8    9 1  
    15    9   11 1  
    16    9   10 1  
    17   10   19 1  
    18   11   32 1  
    19   11   12 1  
    20   12   13 1  
    21   13   17 1  
    22   13   14 1  
    23   14   21 1  
    24   14   15 1  
    25   15   16 1  
    26   16   33 1  
    27   16   17 1  
    28   17   22 2  
    29   22   29 1  
    30   22   23 1  
    31   23   24 1  
    32   24   25 1  
    33   25   26 2  
    34   26   28 1  
    35   26   27 1  
    36   29   36 2  
    37   29   35 2  
    38   33   30 1  
    39   30   34 2  
    40   30   31 1  
    41    1   38 1  
    42    1   39 1  
    43    2   40 1  
    44    2   41 1  
    45    3   42 1  
    46    4   43 1  
    47    5   44 1  
    48    6   45 1  
    49    6   46 1  
    50    7   47 1  
    51    7   48 1  
    52    9   49 1  
    53   11   50 1  
    54   12   51 1  
    55   12   52 1  
    56   13   53 1  
    57   15   54 1  
    58   15   55 1  
    59   16   56 1  
    60   18   57 1  
    61   18   58 1  
    62   18   59 1  
    63   19   60 1  
    64   19   61 1  
    65   19   62 1  
    66   20   63 1  
    67   20   64 1  
    68   20   65 1  
    69   21   66 1  
    70   21   67 1  
    71   21   68 1  
    72   23   69 1  
    73   23   70 1  
    74   24   71 1  
    75   24   72 1  
    76   25   73 1  
    77   27   74 1  
    78   27   75 1  
    79   27   76 1  
    80   28   77 1  
    81   28   78 1  
    82   28   79 1  
    83   31   80 1  
    84   31   81 1  
    85   31   82 1  
    86   32   83 1  
    87   37   84 1  
@<TRIPOS>SUBSTRUCTURE
     1 SUB1        1 GROUP

