1qca_ligand
  -I-interpret- 

 84 87  0  0  0  0  0  0  0  0999 V2000
   -0.2410   16.4710   15.9770 C   0  0  0  0  0
   -1.2180   16.0020   17.0800 C   0  0  0  0  0
   -1.7290   14.6010   16.9690 C   0  0  0  0  0
   -0.6090   13.5550   16.4850 C   0  0  0  0  0
    0.1980   14.1680   15.3940 C   0  0  0  0  0
    0.9790   13.1370   14.6140 C   0  0  0  0  0
    1.8780   13.6690   13.4630 C   0  0  0  0  0
    1.6100   15.1440   13.1120 C   0  0  0  0  0
    1.7570   15.9960   14.4160 C   0  0  0  0  0
    0.8500   15.4800   15.6280 C   0  0  0  0  0
    1.5380   17.5540   14.0620 C   0  0  0  0  0
    2.6000   18.0240   13.0630 C   0  0  0  0  0
    2.5610   17.1960   11.7450 C   0  0  0  0  0
    2.7330   15.6930   12.0730 C   0  0  0  0  0
    2.7120   15.1100   10.7000 C   0  0  0  0  0
    3.4150   16.1260    9.7730 C   0  0  0  0  0
    3.4310   17.4300   10.5910 C   0  0  0  0  0
   -1.4160   12.3510   16.1600 C   0  0  0  0  0
    1.7630   15.2600   16.8810 C   0  0  0  0  0
    0.2620   15.2980   12.5590 C   0  0  0  0  0
    4.2240   15.5230   12.4730 C   0  0  0  0  0
    4.2290   18.3590   10.0920 C   0  0  0  0  0
    4.4120   19.7030   10.7610 C   0  0  0  0  0
    5.5740   20.6240   10.3970 C   0  0  0  0  0
    6.0130   21.7040   11.3200 C   0  0  0  0  0
    5.3030   22.5780   11.8380 C   0  0  0  0  0
    5.4330   23.7750   12.8540 C   0  0  0  0  0
    3.7270   22.6820   11.5350 C   0  0  0  0  0
    5.0180   18.1410    8.8800 C   0  0  0  0  0
    5.3920   14.9770    8.9030 C   0  0  0  0  0
    6.7890   14.8630    9.1190 C   0  0  0  0  0
    0.2370   17.6070   13.4510 O   0  0  0  0  0
    4.8790   15.8570    9.7960 O   0  0  0  0  0
    4.7480   14.4230    8.1390 O   0  0  0  0  0
    6.2070   18.5770    8.8280 O   0  0  0  0  0
    4.6050   17.6150    7.7740 O   0  5  0  0  0
   -2.8510   14.6200   16.0410 O   0  0  0  0  0
   -0.8246   16.6715   15.0664 H   0  0  0  0  0
    0.2381   17.4007   16.3177 H   0  0  0  0  0
   -2.0869   16.6764   17.0653 H   0  0  0  0  0
   -0.6996   16.0928   18.0459 H   0  0  0  0  0
   -2.0866   14.2796   17.9583 H   0  0  0  0  0
    0.0774   13.3115   17.3093 H   0  0  0  0  0
   -0.5834   14.4546   14.6748 H   0  0  0  0  0
    0.2567   12.4330   14.1750 H   0  0  0  0  0
    1.6273   12.6022   15.3237 H   0  0  0  0  0
    1.6952   13.0582   12.5666 H   0  0  0  0  0
    2.9303   13.5683   13.7670 H   0  0  0  0  0
    2.7993   15.8886   14.7507 H   0  0  0  0  0
    1.5751   18.1741   14.9698 H   0  0  0  0  0
    3.5936   17.9155   13.5223 H   0  0  0  0  0
    2.4202   19.0825   12.8239 H   0  0  0  0  0
    1.5398   17.3464   11.3648 H   0  0  0  0  0
    1.6742   14.9525   10.3713 H   0  0  0  0  0
    3.2501   14.1507   10.6876 H   0  0  0  0  0
    2.9699   16.1915    8.7692 H   0  0  0  0  0
   -1.9529   12.0157   17.0596 H   0  0  0  0  0
   -0.7514   11.5478   15.8090 H   0  0  0  0  0
   -2.1414   12.5978   15.3708 H   0  0  0  0  0
    1.1507   14.9046   17.7229 H   0  0  0  0  0
    2.2459   16.2098   17.1542 H   0  0  0  0  0
    2.5336   14.5110   16.6462 H   0  0  0  0  0
    0.1702   14.6952   11.6435 H   0  0  0  0  0
    0.0822   16.3567   12.3205 H   0  0  0  0  0
   -0.4785   14.9577   13.2978 H   0  0  0  0  0
    4.3794   15.9213   13.4865 H   0  0  0  0  0
    4.8592   16.0716   11.7621 H   0  0  0  0  0
    4.4894   14.4557   12.4539 H   0  0  0  0  0
    4.5003   19.5035   11.8391 H   0  0  0  0  0
    3.4916   20.2736   10.5678 H   0  0  0  0  0
    5.3006   21.1134    9.4506 H   0  0  0  0  0
    6.4481   19.9760   10.2357 H   0  0  0  0  0
    7.0731   21.7299   11.5677 H   0  0  0  0  0
    4.4530   24.2590   12.9777 H   0  0  0  0  0
    6.1573   24.5071   12.4674 H   0  0  0  0  0
    5.7794   23.3947   13.8263 H   0  0  0  0  0
    3.4387   21.8979   10.8194 H   0  0  0  0  0
    3.5002   23.6698   11.1076 H   0  0  0  0  0
    3.1641   22.5493   12.4707 H   0  0  0  0  0
    7.2145   14.1498    8.3977 H   0  0  0  0  0
    6.9738   14.5039   10.1422 H   0  0  0  0  0
    7.2623   15.8468    8.9846 H   0  0  0  0  0
    0.0366   18.5046   13.2127 H   0  0  0  0  0
   -3.1991   13.7410   15.9487 H   0  0  0  0  0
  1 10  1  0  0  0
  1  2  1  0  0  0
  2  3  1  0  0  0
  3 37  1  0  0  0
  3  4  1  0  0  0
  4 18  1  0  0  0
  4  5  1  0  0  0
  5 10  1  0  0  0
  5  6  1  0  0  0
  6  7  1  0  0  0
  7  8  1  0  0  0
  8 20  1  0  0  0
  8 14  1  0  0  0
  8  9  1  0  0  0
  9 11  1  0  0  0
  9 10  1  0  0  0
 10 19  1  0  0  0
 11 32  1  0  0  0
 11 12  1  0  0  0
 12 13  1  0  0  0
 13 17  1  0  0  0
 13 14  1  0  0  0
 14 21  1  0  0  0
 14 15  1  0  0  0
 15 16  1  0  0  0
 16 33  1  0  0  0
 16 17  1  0  0  0
 17 22  2  0  0  0
 22 29  1  0  0  0
 22 23  1  0  0  0
 23 24  1  0  0  0
 24 25  1  0  0  0
 25 26  2  0  0  0
 26 28  1  0  0  0
 26 27  1  0  0  0
 29 36  1  0  0  0
 29 35  2  0  0  0
 33 30  1  0  0  0
 30 34  2  0  0  0
 30 31  1  0  0  0
  1 38  1  0  0  0
  1 39  1  0  0  0
  2 40  1  0  0  0
  2 41  1  0  0  0
  3 42  1  0  0  0
  4 43  1  0  0  0
  5 44  1  0  0  0
  6 45  1  0  0  0
  6 46  1  0  0  0
  7 47  1  0  0  0
  7 48  1  0  0  0
  9 49  1  0  0  0
 11 50  1  0  0  0
 12 51  1  0  0  0
 12 52  1  0  0  0
 13 53  1  0  0  0
 15 54  1  0  0  0
 15 55  1  0  0  0
 16 56  1  0  0  0
 18 57  1  0  0  0
 18 58  1  0  0  0
 18 59  1  0  0  0
 19 60  1  0  0  0
 19 61  1  0  0  0
 19 62  1  0  0  0
 20 63  1  0  0  0
 20 64  1  0  0  0
 20 65  1  0  0  0
 21 66  1  0  0  0
 21 67  1  0  0  0
 21 68  1  0  0  0
 23 69  1  0  0  0
 23 70  1  0  0  0
 24 71  1  0  0  0
 24 72  1  0  0  0
 25 73  1  0  0  0
 27 74  1  0  0  0
 27 75  1  0  0  0
 27 76  1  0  0  0
 28 77  1  0  0  0
 28 78  1  0  0  0
 28 79  1  0  0  0
 31 80  1  0  0  0
 31 81  1  0  0  0
 31 82  1  0  0  0
 32 83  1  0  0  0
 37 84  1  0  0  0
M  END
$$$$
