### 
### Created by X-TOOL on Tue Oct 25 01:34:59 2005
### 

@<TRIPOS>MOLECULE
1r0x_ligand
   43    45     1     0     0
SMALL
GAST_HUCK


@<TRIPOS>ATOM
      1 PG        161.7650    6.7740   29.7860 P.3       1 SUB1        0.143
      2 O1G       162.1430    6.7740   28.3670 O.co2     1 SUB1       -0.614
      3 O2G       160.4590    5.9990   30.1110 O.co2     1 SUB1       -0.614
      4 O3G       162.8420    6.0200   30.5770 O.co2     1 SUB1       -0.614
      5 PB        160.3860    9.2660   30.0000 P.3       1 SUB1        0.354
      6 O1B       160.2940    9.7630   28.6200 O.co2     1 SUB1       -0.497
      7 O2B       159.1270    8.6060   30.5450 O.co2     1 SUB1       -0.497
      8 O3B       161.6610    8.3190   30.2170 O.3       1 SUB1       -0.297
      9 PA        160.3120   10.8880   32.3570 P.3       1 SUB1        0.350
     10 O1A       160.3390    9.7030   33.2570 O.co2     1 SUB1       -0.488
     11 O2A       158.9490   11.6380   32.4040 O.co2     1 SUB1       -0.488
     12 O3A       160.7090   10.6280   30.8110 O.3       1 SUB1       -0.186
     13 O5        161.5640   11.7980   32.8780 O.3       1 SUB1       -0.280
     14 C5        161.7530   13.1600   32.5720 C.3       1 SUB1        0.102
     15 C4        162.8880   13.6440   33.4700 C.3       1 SUB1        0.118
     16 O4        162.7390   13.1070   34.7710 O.3       1 SUB1       -0.336
     17 C3        164.2620   13.1980   33.0110 C.3       1 SUB1        0.115
     18 O3        164.8270   14.2300   32.2480 O.3       1 SUB1       -0.386
     19 C2        165.0220   12.9720   34.3040 C.3       1 SUB1        0.139
     20 O2        165.5840   14.1780   34.7890 O.3       1 SUB1       -0.384
     21 C1        163.9680   12.6820   35.3410 C.3       1 SUB1        0.201
     22 N9        163.9310   11.2850   35.8240 N.pl3     1 SUB1       -0.192
     23 C8        162.8660   10.4290   35.6920 C.2       1 SUB1        0.112
     24 N7        163.1560    9.2450   36.2650 N.2       1 SUB1       -0.296
     25 C5        164.4090    9.3190   36.7760 C.ar      1 SUB1        0.105
     26 C6        165.1770    8.3790   37.4780 C.ar      1 SUB1        0.130
     27 N6        164.6650    7.1720   37.7200 N.pl3     1 SUB1       -0.315
     28 N1        166.4510    8.7330   37.8840 N.ar      1 SUB1       -0.270
     29 C2        166.9360   10.0020   37.6110 C.ar      1 SUB1        0.053
     30 N3        166.1670   10.9300   36.9290 N.ar      1 SUB1       -0.271
     31 C4        164.9130   10.5990   36.5110 C.ar      1 SUB1        0.161
     32 H141      160.8343   13.7285   32.7787 H         1 SUB1        0.064
     33 H142      162.0272   13.2786   31.5134 H         1 SUB1        0.064
     34 H151      162.8559   14.7428   33.5085 H         1 SUB1        0.065
     35 H171      164.2120   12.2732   32.4175 H         1 SUB1        0.065
     36 H181      164.8990   15.0133   32.7808 H         1 SUB1        0.210
     37 H191      165.7709   12.1729   34.2009 H         1 SUB1        0.068
     38 H201      166.1850   14.5286   34.1422 H         1 SUB1        0.210
     39 H211      164.1767   13.3102   36.2195 H         1 SUB1        0.100
     40 H231      161.9264   10.6712   35.1976 H         1 SUB1        0.135
     41 H271      165.2180    6.4717   38.2345 H         1 SUB1        0.182
     42 H272      163.7165    6.9398   37.3924 H         1 SUB1        0.182
     43 H291      167.9338   10.2728   37.9367 H         1 SUB1        0.100
@<TRIPOS>BOND
     1    1    2 2  
     2    1    3 2  
     3    1    4 2  
     4    8    1 1  
     5    5    6 2  
     6    5    7 2  
     7    5    8 1  
     8   12    5 1  
     9    9   10 2  
    10    9   11 2  
    11    9   12 1  
    12    9   13 1  
    13   13   14 1  
    14   14   15 1  
    15   15   16 1  
    16   15   17 1  
    17   16   21 1  
    18   17   18 1  
    19   17   19 1  
    20   19   20 1  
    21   19   21 1  
    22   21   22 1  
    23   22   23 1  
    24   22   31 1  
    25   23   24 2  
    26   24   25 1  
    27   25   26 ar 
    28   25   31 ar 
    29   26   27 1  
    30   26   28 ar 
    31   28   29 ar 
    32   29   30 ar 
    33   30   31 ar 
    34   14   32 1  
    35   14   33 1  
    36   15   34 1  
    37   17   35 1  
    38   18   36 1  
    39   19   37 1  
    40   20   38 1  
    41   21   39 1  
    42   23   40 1  
    43   27   41 1  
    44   27   42 1  
    45   29   43 1  
@<TRIPOS>SUBSTRUCTURE
     1 SUB1        1 GROUP

