1sc8_ligand
  -I-interpret- 

 57 58  0  0  0  0  0  0  0  0999 V2000
   33.2550    2.9670   27.9080 N   0  0  0  0  0
   34.3090    4.7250   27.0940 N   0  0  0  0  0
   33.1790    4.2800   27.6500 C   0  3  0  0  0
   32.0720    5.1030   27.9120 C   0  0  0  0  0
   31.9610    6.4910   27.4340 C   0  0  0  0  0
   30.7700    7.2710   27.6590 C   0  0  0  0  0
   29.6970    6.6860   28.4560 C   0  0  0  0  0
   29.7750    5.3320   28.9560 C   0  0  0  0  0
   30.9500    4.5650   28.6920 C   0  0  0  0  0
   28.4260    7.3650   28.8680 C   0  0  0  0  0
   28.4480    8.2740   29.9300 N   0  0  0  0  0
   28.7680    9.6030   29.7830 C   0  0  0  0  0
   29.0050   10.2130   28.7450 O   0  0  0  0  0
   28.8340   10.3830   31.0940 C   0  0  0  0  0
   30.0400   11.1740   31.0280 N   0  0  0  0  0
   31.3660   10.8020   31.0110 C   0  0  0  0  0
   31.7890    9.6780   31.1160 O   0  0  0  0  0
   32.3620   11.9350   30.8300 C   0  0  0  0  0
   33.1230   12.3240   32.1200 C   0  0  0  0  0
   32.4870   12.3930   33.3690 O   0  0  0  0  0
   33.5000   11.6710   29.9870 N   0  0  0  0  0
   33.3130   12.0270   28.4080 S   0  0  0  0  0
   32.9000   13.3830   28.2150 O   0  0  0  0  0
   34.6390   11.6510   27.9190 O   0  0  0  0  0
   32.1970   10.9650   27.4930 C   0  0  0  0  0
   31.8210   11.1810   26.0660 C   0  0  0  0  0
   30.8310   12.2150   25.7540 C   0  0  0  0  0
   30.4570   12.4660   24.3570 C   0  0  0  0  0
   31.0400   11.6620   23.2750 C   0  0  0  0  0
   32.0480   10.6280   23.5870 C   0  0  0  0  0
   32.4160   10.3850   24.9880 C   0  0  0  0  0
   32.4564    2.4798   28.3389 H   0  0  0  0  0
   34.1120    2.4452   27.6753 H   0  0  0  0  0
   34.4007    5.7185   26.8383 H   0  0  0  0  0
   35.0887    4.0746   26.9210 H   0  0  0  0  0
   32.7934    6.9362   26.9011 H   0  0  0  0  0
   30.6738    8.2686   27.2459 H   0  0  0  0  0
   28.9547    4.9058   29.5222 H   0  0  0  0  0
   31.0159    3.5546   29.0792 H   0  0  0  0  0
   27.7124    6.5729   29.1387 H   0  0  0  0  0
   28.0532    7.9093   27.9878 H   0  0  0  0  0
   28.2190    7.9401   30.8444 H   0  0  0  0  0
   28.8773    9.6913   31.9482 H   0  0  0  0  0
   27.9543   11.0356   31.1948 H   0  0  0  0  0
   29.8862   12.1613   30.9877 H   0  0  0  0  0
   31.7994   12.7964   30.4408 H   0  0  0  0  0
   33.5492   13.3214   31.9366 H   0  0  0  0  0
   33.9367   11.5920   32.2295 H   0  0  0  0  0
   33.1190   12.6468   34.0313 H   0  0  0  0  0
   34.3521   11.2926   30.3486 H   0  0  0  0  0
   31.2512   10.9722   28.0546 H   0  0  0  0  0
   32.6409    9.9594   27.5352 H   0  0  0  0  0
   30.3768   12.7921   26.5513 H   0  0  0  0  0
   29.7459   13.2498   24.1224 H   0  0  0  0  0
   30.7312   11.8270   22.2491 H   0  0  0  0  0
   32.5106   10.0554   22.7913 H   0  0  0  0  0
   33.1346    9.6095   25.2274 H   0  0  0  0  0
  1  3  1  0  0  0
  3  2  1  0  0  0
  3  4  1  0  0  0
  4  5  4  0  0  0
  4  9  4  0  0  0
  5  6  4  0  0  0
  6  7  4  0  0  0
  7  8  4  0  0  0
  7 10  1  0  0  0
  8  9  4  0  0  0
 10 11  1  0  0  0
 11 12  1  0  0  0
 12 13  2  0  0  0
 12 14  1  0  0  0
 14 15  1  0  0  0
 15 16  1  0  0  0
 16 17  2  0  0  0
 16 18  1  0  0  0
 18 19  1  0  0  0
 18 21  1  0  0  0
 19 20  1  0  0  0
 21 22  1  0  0  0
 22 23  2  0  0  0
 22 24  2  0  0  0
 22 25  1  0  0  0
 25 26  1  0  0  0
 26 27  4  0  0  0
 26 31  4  0  0  0
 27 28  4  0  0  0
 28 29  4  0  0  0
 29 30  4  0  0  0
 30 31  4  0  0  0
  1 32  1  0  0  0
  1 33  1  0  0  0
  2 34  1  0  0  0
  2 35  1  0  0  0
  5 36  1  0  0  0
  6 37  1  0  0  0
  8 38  1  0  0  0
  9 39  1  0  0  0
 10 40  1  0  0  0
 10 41  1  0  0  0
 11 42  1  0  0  0
 14 43  1  0  0  0
 14 44  1  0  0  0
 15 45  1  0  0  0
 18 46  1  0  0  0
 19 47  1  0  0  0
 19 48  1  0  0  0
 20 49  1  0  0  0
 21 50  1  0  0  0
 25 51  1  0  0  0
 25 52  1  0  0  0
 27 53  1  0  0  0
 28 54  1  0  0  0
 29 55  1  0  0  0
 30 56  1  0  0  0
 31 57  1  0  0  0
M  END
$$$$
