### 
### Created by X-TOOL on Tue Oct 25 02:21:55 2005
### 

@<TRIPOS>MOLECULE
1sc8_ligand
   57    58     1     0     0
SMALL
GAST_HUCK


@<TRIPOS>ATOM
      1 N4         33.2550    2.9670   27.9080 N.pl3     1 SUB1       -0.201
      2 N5         34.3090    4.7250   27.0940 N.pl3     1 SUB1       -0.201
      3 C18        33.1790    4.2800   27.6500 C.cat     1 SUB1        0.312
      4 C14        32.0720    5.1030   27.9120 C.ar      1 SUB1        0.179
      5 C13        31.9610    6.4910   27.4340 C.ar      1 SUB1       -0.014
      6 C12        30.7700    7.2710   27.6590 C.ar      1 SUB1       -0.054
      7 C17        29.6970    6.6860   28.4560 C.ar      1 SUB1       -0.021
      8 C16        29.7750    5.3320   28.9560 C.ar      1 SUB1       -0.054
      9 C15        30.9500    4.5650   28.6920 C.ar      1 SUB1       -0.014
     10 C11        28.4260    7.3650   28.8680 C.3       1 SUB1        0.064
     11 N3         28.4480    8.2740   29.9300 N.am      1 SUB1       -0.274
     12 C10        28.7680    9.6030   29.7830 C.2       1 SUB1        0.200
     13 O5         29.0050   10.2130   28.7450 O.2       1 SUB1       -0.395
     14 C8         28.8340   10.3830   31.0940 C.3       1 SUB1        0.120
     15 N2         30.0400   11.1740   31.0280 N.am      1 SUB1       -0.267
     16 C7         31.3660   10.8020   31.0110 C.2       1 SUB1        0.202
     17 O4         31.7890    9.6780   31.1160 O.2       1 SUB1       -0.395
     18 C5         32.3620   11.9350   30.8300 C.3       1 SUB1        0.149
     19 C6         33.1230   12.3240   32.1200 C.3       1 SUB1        0.081
     20 O3         32.4870   12.3930   33.3690 O.3       1 SUB1       -0.391
     21 N1         33.5000   11.6710   29.9870 N.am      1 SUB1       -0.226
     22 S1         33.3130   12.0270   28.4080 S.o2      1 SUB1        0.051
     23 O2         32.9000   13.3830   28.2150 O.2       1 SUB1       -0.153
     24 O1         34.6390   11.6510   27.9190 O.2       1 SUB1       -0.153
     25 C1         32.1970   10.9650   27.4930 C.3       1 SUB1        0.118
     26 C4         31.8210   11.1810   26.0660 C.ar      1 SUB1       -0.020
     27 C3         30.8310   12.2150   25.7540 C.ar      1 SUB1       -0.059
     28 C2         30.4570   12.4660   24.3570 C.ar      1 SUB1       -0.068
     29 C21        31.0400   11.6620   23.2750 C.ar      1 SUB1       -0.069
     30 C20        32.0480   10.6280   23.5870 C.ar      1 SUB1       -0.068
     31 C19        32.4160   10.3850   24.9880 C.ar      1 SUB1       -0.059
     32 H11        32.4564    2.4798   28.3389 H         1 SUB1        0.192
     33 H12        34.1120    2.4452   27.6753 H         1 SUB1        0.192
     34 H21        34.4007    5.7185   26.8383 H         1 SUB1        0.192
     35 H22        35.0887    4.0746   26.9210 H         1 SUB1        0.192
     36 H51        32.7934    6.9362   26.9011 H         1 SUB1        0.065
     37 H61        30.6738    8.2686   27.2459 H         1 SUB1        0.056
     38 H81        28.9547    4.9058   29.5222 H         1 SUB1        0.056
     39 H91        31.0159    3.5546   29.0792 H         1 SUB1        0.065
     40 H101       27.7124    6.5729   29.1387 H         1 SUB1        0.068
     41 H102       28.0532    7.9093   27.9878 H         1 SUB1        0.068
     42 H111       28.2190    7.9401   30.8444 H         1 SUB1        0.188
     43 H141       28.8773    9.6913   31.9482 H         1 SUB1        0.076
     44 H142       27.9543   11.0356   31.1948 H         1 SUB1        0.076
     45 H151       29.8862   12.1613   30.9877 H         1 SUB1        0.188
     46 H181       31.7994   12.7964   30.4408 H         1 SUB1        0.078
     47 H191       33.5492   13.3214   31.9366 H         1 SUB1        0.060
     48 H192       33.9367   11.5920   32.2295 H         1 SUB1        0.060
     49 H201       33.1190   12.6468   34.0313 H         1 SUB1        0.210
     50 H211       34.3521   11.2926   30.3486 H         1 SUB1        0.170
     51 H251       31.2512   10.9722   28.0546 H         1 SUB1        0.068
     52 H252       32.6409    9.9594   27.5352 H         1 SUB1        0.068
     53 H271       30.3768   12.7921   26.5513 H         1 SUB1        0.056
     54 H281       29.7459   13.2498   24.1224 H         1 SUB1        0.060
     55 H291       30.7312   11.8270   22.2491 H         1 SUB1        0.056
     56 H301       32.5106   10.0554   22.7913 H         1 SUB1        0.060
     57 H311       33.1346    9.6095   25.2274 H         1 SUB1        0.056
@<TRIPOS>BOND
     1    1    3 1  
     2    3    2 1  
     3    3    4 1  
     4    4    5 ar 
     5    4    9 ar 
     6    5    6 ar 
     7    6    7 ar 
     8    7    8 ar 
     9    7   10 1  
    10    8    9 ar 
    11   10   11 1  
    12   11   12 am 
    13   12   13 2  
    14   12   14 1  
    15   14   15 1  
    16   15   16 am 
    17   16   17 2  
    18   16   18 1  
    19   18   19 1  
    20   18   21 1  
    21   19   20 1  
    22   21   22 am 
    23   22   23 2  
    24   22   24 2  
    25   22   25 1  
    26   25   26 1  
    27   26   27 ar 
    28   26   31 ar 
    29   27   28 ar 
    30   28   29 ar 
    31   29   30 ar 
    32   30   31 ar 
    33    1   32 1  
    34    1   33 1  
    35    2   34 1  
    36    2   35 1  
    37    5   36 1  
    38    6   37 1  
    39    8   38 1  
    40    9   39 1  
    41   10   40 1  
    42   10   41 1  
    43   11   42 1  
    44   14   43 1  
    45   14   44 1  
    46   15   45 1  
    47   18   46 1  
    48   19   47 1  
    49   19   48 1  
    50   20   49 1  
    51   21   50 1  
    52   25   51 1  
    53   25   52 1  
    54   27   53 1  
    55   28   54 1  
    56   29   55 1  
    57   30   56 1  
    58   31   57 1  
@<TRIPOS>SUBSTRUCTURE
     1 SUB1        1 GROUP

