1owh_ligand
  -I-interpret- 

 44 46  0  0  0  0  0  0  0  0999 V2000
   17.0260   19.5340   33.8170 N   0  0  0  0  0
   18.3420   19.7790   34.0210 C   0  3  0  0  0
   18.8990   20.9440   34.4160 N   0  0  0  0  0
   19.2400   18.6840   33.6740 C   0  0  0  0  0
   20.5630   18.5360   34.1950 C   0  0  0  0  0
   21.4750   17.5390   33.8390 C   0  0  0  0  0
   22.6920   17.4620   34.5200 C   0  0  0  0  0
   23.5100   16.3800   34.1390 C   0  0  0  0  0
   23.3010   15.4310   33.1170 C   0  0  0  0  0
   22.0280   15.5900   32.5470 C   0  0  0  0  0
   21.0740   16.5880   32.8630 C   0  0  0  0  0
   19.8070   16.5780   32.2680 C   0  0  0  0  0
   18.9440   17.6150   32.6920 C   0  0  0  0  0
   24.3060   14.4770   32.6780 C   0  0  0  0  0
   25.1000   14.1030   33.5500 O   0  0  0  0  0
   24.4480   14.1640   31.3640 N   0  0  0  0  0
   25.3860   13.3270   30.7300 C   0  0  0  0  0
   25.9770   12.2390   31.4150 C   0  0  0  0  0
   26.9420   11.4730   30.7230 C   0  0  0  0  0
   27.1990   11.7810   29.3630 C   0  0  0  0  0
   26.5550   12.8220   28.6630 C   0  0  0  0  0
   25.7090   13.6600   29.4110 C   0  0  0  0  0
   28.2610   10.9740   28.6540 C   0  0  0  0  0
   29.6080   11.4260   28.9550 N   0  3  0  0  0
   16.7171   18.5993   33.5140 H   0  0  0  0  0
   16.3339   20.2823   33.9648 H   0  0  0  0  0
   19.9195   21.0115   34.5386 H   0  0  0  0  0
   18.3034   21.7651   34.5947 H   0  0  0  0  0
   20.8876   19.2618   34.9318 H   0  0  0  0  0
   22.9837   18.1772   35.2805 H   0  0  0  0  0
   24.4243   16.2608   34.7089 H   0  0  0  0  0
   21.7453   14.8733   31.7845 H   0  0  0  0  0
   19.5103   15.8330   31.5386 H   0  0  0  0  0
   17.9549   17.6293   32.2487 H   0  0  0  0  0
   23.7840   14.5944   30.7526 H   0  0  0  0  0
   25.6991   12.0013   32.4354 H   0  0  0  0  0
   27.4730   10.6692   31.2200 H   0  0  0  0  0
   26.7049   12.9692   27.5995 H   0  0  0  0  0
   25.3077   14.5631   28.9655 H   0  0  0  0  0
   28.1776    9.9220   28.9643 H   0  0  0  0  0
   28.1085   11.0579   27.5679 H   0  0  0  0  0
   30.2669   10.8505   28.4542 H   0  0  0  0  0
   29.7220   12.3843   28.6642 H   0  0  0  0  0
   29.7854   11.3435   29.9438 H   0  0  0  0  0
  1  2  1  0  0  0
  2  3  1  0  0  0
  2  4  1  0  0  0
  4  5  4  0  0  0
  4 13  4  0  0  0
  5  6  4  0  0  0
  6  7  4  0  0  0
  6 11  4  0  0  0
  7  8  4  0  0  0
  8  9  4  0  0  0
  9 10  4  0  0  0
  9 14  1  0  0  0
 10 11  4  0  0  0
 11 12  4  0  0  0
 12 13  4  0  0  0
 14 15  2  0  0  0
 14 16  1  0  0  0
 16 17  1  0  0  0
 17 18  4  0  0  0
 17 22  4  0  0  0
 18 19  4  0  0  0
 19 20  4  0  0  0
 20 21  4  0  0  0
 20 23  1  0  0  0
 21 22  4  0  0  0
 23 24  1  0  0  0
  1 25  1  0  0  0
  1 26  1  0  0  0
  3 27  1  0  0  0
  3 28  1  0  0  0
  5 29  1  0  0  0
  7 30  1  0  0  0
  8 31  1  0  0  0
 10 32  1  0  0  0
 12 33  1  0  0  0
 13 34  1  0  0  0
 16 35  1  0  0  0
 18 36  1  0  0  0
 19 37  1  0  0  0
 21 38  1  0  0  0
 22 39  1  0  0  0
 23 40  1  0  0  0
 23 41  1  0  0  0
 24 42  1  0  0  0
 24 43  1  0  0  0
 24 44  1  0  0  0
M  END
$$$$
