### 
### Created by X-TOOL on Tue Oct 25 01:45:38 2005
### 

@<TRIPOS>MOLECULE
1tlp_ligand
   69    71     1     0     0
SMALL
GAST_HUCK


@<TRIPOS>ATOM
      1 H201       50.8355   17.5641   -5.2829 H         1 SUB1        0.174
      2 H211       53.3965   18.7969   -4.5894 H         1 SUB1        0.079
      3 H241       51.3563   17.4600   -2.7963 H         1 SUB1        0.032
      4 H242       51.7127   19.2148   -2.9384 H         1 SUB1        0.032
      5 H251       53.6907   17.0830   -1.9973 H         1 SUB1        0.030
      6 C1         51.1830   16.9140   -8.2540 C.3       1 SUB1        0.200
      7 O1         50.9200   18.1370   -7.6430 O.3       1 SUB1       -0.301
      8 C2         50.1710   16.1130   -7.5020 C.3       1 SUB1        0.137
      9 O2         49.9760   14.7420   -8.0340 O.3       1 SUB1       -0.384
     10 C3         48.8650   16.7500   -7.7870 C.3       1 SUB1        0.114
     11 O3         48.0220   16.0090   -6.9240 O.3       1 SUB1       -0.386
     12 C4         48.6100   16.5020   -9.2630 C.3       1 SUB1        0.109
     13 O4         47.2680   16.7170   -9.5930 O.3       1 SUB1       -0.387
     14 C5         49.5720   17.3760  -10.0840 C.3       1 SUB1        0.088
     15 O5         50.9170   16.9670   -9.6780 O.3       1 SUB1       -0.340
     16 C6         49.3600   17.3970  -11.6040 C.3       1 SUB1       -0.036
     17 P          51.7150   18.9020   -6.5960 P.3       1 SUB1        0.217
     18 O1P        53.2310   19.0530   -6.8700 O.co2     1 SUB1       -0.545
     19 O2P        51.1940   20.2340   -6.3250 O.co2     1 SUB1       -0.545
     20 N          51.6670   18.1030   -5.4180 N.am      1 SUB1       -0.300
     21 CA         52.6880   17.9800   -4.3880 C.3       1 SUB1        0.122
     22 C          53.5040   16.7200   -4.3740 C.2       1 SUB1        0.204
     23 O          54.6370   16.8510   -3.9330 O.2       1 SUB1       -0.394
     24 CB         52.1440   18.2040   -2.9860 C.3       1 SUB1       -0.011
     25 CG         53.2360   18.0740   -1.8520 C.3       1 SUB1       -0.043
     26 CD1        54.3930   19.0990   -1.8240 C.3       1 SUB1       -0.062
     27 CD2        52.6370   18.1190   -0.4400 C.3       1 SUB1       -0.062
     28 N          52.9100   15.5590   -4.8310 N.am      1 SUB1       -0.267
     29 CA         53.5360   14.2310   -4.9710 C.3       1 SUB1        0.086
     30 C          52.6730   13.2180   -5.7660 C.2       1 SUB1        0.054
     31 O          51.4900   13.6410   -5.9320 O.co2     1 SUB1       -0.564
     32 CB         54.0320   13.7790   -3.5780 C.3       1 SUB1       -0.002
     33 CG         52.9380   13.3650   -2.6840 C.2       1 SUB1       -0.041
     34 CD1        52.1560   14.1970   -1.9470 C.2       1 SUB1        0.017
     35 CD2        52.4770   12.0380   -2.4410 C.ar      1 SUB1       -0.021
     36 NE1        51.2200   13.4920   -1.2530 N.pl3     1 SUB1       -0.289
     37 CE2        51.3940   12.1660   -1.5210 C.ar      1 SUB1        0.060
     38 CE3        52.8730   10.7720   -2.9060 C.ar      1 SUB1       -0.075
     39 CZ2        50.6760   11.0820   -1.0520 C.ar      1 SUB1       -0.044
     40 CZ3        52.1450    9.6940   -2.4440 C.ar      1 SUB1       -0.079
     41 CH2        51.0840    9.8480   -1.5190 C.ar      1 SUB1       -0.077
     42 OXT        53.1840   12.0870   -6.1640 O.co2     1 SUB1       -0.564
     43 H261       54.9635   19.0336   -2.7622 H         1 SUB1        0.023
     44 H262       55.0570   18.8793   -0.9750 H         1 SUB1        0.023
     45 H263       53.9817   20.1134   -1.7149 H         1 SUB1        0.023
     46 H271       52.1227   19.0798   -0.2903 H         1 SUB1        0.023
     47 H272       53.4413   18.0140    0.3030 H         1 SUB1        0.023
     48 H273       51.9176   17.2955   -0.3204 H         1 SUB1        0.023
     49 H281       51.9483   15.6269   -5.0964 H         1 SUB1        0.190
     50 H291       54.4397   14.3734   -5.5817 H         1 SUB1        0.079
     51 H321       54.5701   14.6159   -3.1090 H         1 SUB1        0.041
     52 H322       54.7182   12.9293   -3.7090 H         1 SUB1        0.041
     53 H341       52.2632   15.2803   -1.9156 H         1 SUB1        0.079
     54 H361       50.5027   13.8921   -0.6315 H         1 SUB1        0.222
     55 H381       53.7048   10.6489   -3.5901 H         1 SUB1        0.054
     56 H391       49.8468   11.1932   -0.3627 H         1 SUB1        0.054
     57 H401       52.3928    8.7005   -2.7997 H         1 SUB1        0.051
     58 H411       50.5714    8.9616   -1.1631 H         1 SUB1        0.053
     59 H61        52.2109   16.5625   -8.0814 H         1 SUB1        0.098
     60 H81        50.4135   16.0931   -6.4292 H         1 SUB1        0.067
     61 H91        49.3229   14.2909   -7.5120 H         1 SUB1        0.210
     62 H101       48.8390   17.8259   -7.5597 H         1 SUB1        0.065
     63 H111       48.0590   15.0895   -7.1597 H         1 SUB1        0.210
     64 H121       48.8388   15.4482   -9.4802 H         1 SUB1        0.065
     65 H131       46.7206   16.1265   -9.0888 H         1 SUB1        0.210
     66 H141       49.4257   18.4149   -9.7534 H         1 SUB1        0.062
     67 H161       50.1084   18.0552  -12.0695 H         1 SUB1        0.025
     68 H162       48.3509   17.7730  -11.8283 H         1 SUB1        0.025
     69 H163       49.4688   16.3779  -12.0035 H         1 SUB1        0.025
@<TRIPOS>BOND
     1   20   21 1  
     2   21   24 1  
     3   21   22 1  
     4   22   23 2  
     5   24   25 1  
     6   25   26 1  
     7   25   27 1  
     8   28   29 1  
     9   29   32 1  
    10   29   30 1  
    11   30   31 2  
    12   30   42 2  
    13   32   33 1  
    14   33   34 2  
    15   33   35 1  
    16   35   38 ar 
    17   35   37 ar 
    18   37   39 ar 
    19   37   36 1  
    20   34   36 1  
    21   39   41 ar 
    22   40   41 ar 
    23   38   40 ar 
    24   22   28 am 
    25    7    6 1  
    26    6    8 1  
    27    6   15 1  
    28   17    7 1  
    29    8    9 1  
    30    8   10 1  
    31   10   11 1  
    32   10   12 1  
    33   12   13 1  
    34   14   12 1  
    35   15   14 1  
    36   14   16 1  
    37   17   18 2  
    38   17   19 2  
    39   17   20 1  
    40   20    1 1  
    41   21    2 1  
    42   24    3 1  
    43   24    4 1  
    44   25    5 1  
    45   26   43 1  
    46   26   44 1  
    47   26   45 1  
    48   27   46 1  
    49   27   47 1  
    50   27   48 1  
    51   28   49 1  
    52   29   50 1  
    53   32   51 1  
    54   32   52 1  
    55   34   53 1  
    56   36   54 1  
    57   38   55 1  
    58   39   56 1  
    59   40   57 1  
    60   41   58 1  
    61    6   59 1  
    62    8   60 1  
    63    9   61 1  
    64   10   62 1  
    65   11   63 1  
    66   12   64 1  
    67   13   65 1  
    68   14   66 1  
    69   16   67 1  
    70   16   68 1  
    71   16   69 1  
@<TRIPOS>SUBSTRUCTURE
     1 SUB1        1 GROUP

