1tlp_ligand
  -I-interpret- 

 69 71  0  0  0  0  0  0  0  0999 V2000
   50.8355   17.5641   -5.2829 H   0  0  0  0  0
   53.3965   18.7969   -4.5894 H   0  0  0  0  0
   51.3563   17.4600   -2.7963 H   0  0  0  0  0
   51.7127   19.2148   -2.9384 H   0  0  0  0  0
   53.6907   17.0830   -1.9973 H   0  0  0  0  0
   51.1830   16.9140   -8.2540 C   0  0  0  0  0
   50.9200   18.1370   -7.6430 O   0  0  0  0  0
   50.1710   16.1130   -7.5020 C   0  0  0  0  0
   49.9760   14.7420   -8.0340 O   0  0  0  0  0
   48.8650   16.7500   -7.7870 C   0  0  0  0  0
   48.0220   16.0090   -6.9240 O   0  0  0  0  0
   48.6100   16.5020   -9.2630 C   0  0  0  0  0
   47.2680   16.7170   -9.5930 O   0  0  0  0  0
   49.5720   17.3760  -10.0840 C   0  0  0  0  0
   50.9170   16.9670   -9.6780 O   0  0  0  0  0
   49.3600   17.3970  -11.6040 C   0  0  0  0  0
   51.7150   18.9020   -6.5960 P   0  0  0  0  0
   53.2310   19.0530   -6.8700 O   0  5  0  0  0
   51.1940   20.2340   -6.3250 O   0  0  0  0  0
   51.6670   18.1030   -5.4180 N   0  0  0  0  0
   52.6880   17.9800   -4.3880 C   0  0  0  0  0
   53.5040   16.7200   -4.3740 C   0  0  0  0  0
   54.6370   16.8510   -3.9330 O   0  0  0  0  0
   52.1440   18.2040   -2.9860 C   0  0  0  0  0
   53.2360   18.0740   -1.8520 C   0  0  0  0  0
   54.3930   19.0990   -1.8240 C   0  0  0  0  0
   52.6370   18.1190   -0.4400 C   0  0  0  0  0
   52.9100   15.5590   -4.8310 N   0  0  0  0  0
   53.5360   14.2310   -4.9710 C   0  0  0  0  0
   52.6730   13.2180   -5.7660 C   0  0  0  0  0
   51.4900   13.6410   -5.9320 O   0  0  0  0  0
   54.0320   13.7790   -3.5780 C   0  0  0  0  0
   52.9380   13.3650   -2.6840 C   0  0  0  0  0
   52.1560   14.1970   -1.9470 C   0  0  0  0  0
   52.4770   12.0380   -2.4410 C   0  0  0  0  0
   51.2200   13.4920   -1.2530 N   0  0  0  0  0
   51.3940   12.1660   -1.5210 C   0  0  0  0  0
   52.8730   10.7720   -2.9060 C   0  0  0  0  0
   50.6760   11.0820   -1.0520 C   0  0  0  0  0
   52.1450    9.6940   -2.4440 C   0  0  0  0  0
   51.0840    9.8480   -1.5190 C   0  0  0  0  0
   53.1840   12.0870   -6.1640 O   0  5  0  0  0
   54.9635   19.0336   -2.7622 H   0  0  0  0  0
   55.0570   18.8793   -0.9750 H   0  0  0  0  0
   53.9817   20.1134   -1.7149 H   0  0  0  0  0
   52.1227   19.0798   -0.2903 H   0  0  0  0  0
   53.4413   18.0140    0.3030 H   0  0  0  0  0
   51.9176   17.2955   -0.3204 H   0  0  0  0  0
   51.9483   15.6269   -5.0964 H   0  0  0  0  0
   54.4397   14.3734   -5.5817 H   0  0  0  0  0
   54.5701   14.6159   -3.1090 H   0  0  0  0  0
   54.7182   12.9293   -3.7090 H   0  0  0  0  0
   52.2632   15.2803   -1.9156 H   0  0  0  0  0
   50.5027   13.8921   -0.6315 H   0  0  0  0  0
   53.7048   10.6489   -3.5901 H   0  0  0  0  0
   49.8468   11.1932   -0.3627 H   0  0  0  0  0
   52.3928    8.7005   -2.7997 H   0  0  0  0  0
   50.5714    8.9616   -1.1631 H   0  0  0  0  0
   52.2109   16.5625   -8.0814 H   0  0  0  0  0
   50.4135   16.0931   -6.4292 H   0  0  0  0  0
   49.3229   14.2909   -7.5120 H   0  0  0  0  0
   48.8390   17.8259   -7.5597 H   0  0  0  0  0
   48.0590   15.0895   -7.1597 H   0  0  0  0  0
   48.8388   15.4482   -9.4802 H   0  0  0  0  0
   46.7206   16.1265   -9.0888 H   0  0  0  0  0
   49.4257   18.4149   -9.7534 H   0  0  0  0  0
   50.1084   18.0552  -12.0695 H   0  0  0  0  0
   48.3509   17.7730  -11.8283 H   0  0  0  0  0
   49.4688   16.3779  -12.0035 H   0  0  0  0  0
 20 21  1  0  0  0
 21 24  1  0  0  0
 21 22  1  0  0  0
 22 23  2  0  0  0
 24 25  1  0  0  0
 25 26  1  0  0  0
 25 27  1  0  0  0
 28 29  1  0  0  0
 29 32  1  0  0  0
 29 30  1  0  0  0
 30 31  2  0  0  0
 30 42  1  0  0  0
 32 33  1  0  0  0
 33 34  2  0  0  0
 33 35  1  0  0  0
 35 38  4  0  0  0
 35 37  4  0  0  0
 37 39  4  0  0  0
 37 36  1  0  0  0
 34 36  1  0  0  0
 39 41  4  0  0  0
 40 41  4  0  0  0
 38 40  4  0  0  0
 22 28  1  0  0  0
  7  6  1  0  0  0
  6  8  1  0  0  0
  6 15  1  0  0  0
 17  7  1  0  0  0
  8  9  1  0  0  0
  8 10  1  0  0  0
 10 11  1  0  0  0
 10 12  1  0  0  0
 12 13  1  0  0  0
 14 12  1  0  0  0
 15 14  1  0  0  0
 14 16  1  0  0  0
 17 18  1  0  0  0
 17 19  2  0  0  0
 17 20  1  0  0  0
 20  1  1  0  0  0
 21  2  1  0  0  0
 24  3  1  0  0  0
 24  4  1  0  0  0
 25  5  1  0  0  0
 26 43  1  0  0  0
 26 44  1  0  0  0
 26 45  1  0  0  0
 27 46  1  0  0  0
 27 47  1  0  0  0
 27 48  1  0  0  0
 28 49  1  0  0  0
 29 50  1  0  0  0
 32 51  1  0  0  0
 32 52  1  0  0  0
 34 53  1  0  0  0
 36 54  1  0  0  0
 38 55  1  0  0  0
 39 56  1  0  0  0
 40 57  1  0  0  0
 41 58  1  0  0  0
  6 59  1  0  0  0
  8 60  1  0  0  0
  9 61  1  0  0  0
 10 62  1  0  0  0
 11 63  1  0  0  0
 12 64  1  0  0  0
 13 65  1  0  0  0
 14 66  1  0  0  0
 16 67  1  0  0  0
 16 68  1  0  0  0
 16 69  1  0  0  0
M  END
$$$$
