### 
### Created by X-TOOL on Mon Oct 24 22:01:40 2005
### 

@<TRIPOS>MOLECULE
1moq_ligand
   29    29     1     0     0
SMALL
GAST_HUCK


@<TRIPOS>ATOM
      1 C1         28.6010   16.1110   -4.4140 C.3       1 SUB1        0.203
      2 C2         28.8910   15.4320   -3.0910 C.3       1 SUB1        0.056
      3 C3         28.4690   16.3310   -1.9410 C.3       1 SUB1        0.130
      4 C4         29.1460   17.6830   -2.0190 C.3       1 SUB1        0.115
      5 C5         28.8520   18.3080   -3.3990 C.3       1 SUB1        0.117
      6 C6         29.7790   19.5210   -3.5920 C.3       1 SUB1        0.094
      7 O1         27.2100   16.2670   -4.5550 O.3       1 SUB1       -0.363
      8 N2         28.2120   14.1670   -3.0350 N.4       1 SUB1        0.226
      9 O3         28.8730   15.7090   -0.7040 O.3       1 SUB1       -0.383
     10 O4         28.6900   18.5990   -1.0450 O.3       1 SUB1       -0.386
     11 O5         29.1460   17.3920   -4.4350 O.3       1 SUB1       -0.338
     12 O6         31.1380   19.0410   -3.7440 O.3       1 SUB1       -0.320
     13 P          32.4010   19.8890   -3.1820 P.3       1 SUB1        0.205
     14 O1P        32.4310   21.1820   -3.9060 O.co2     1 SUB1       -0.535
     15 O2P        33.5520   19.0030   -3.3860 O.co2     1 SUB1       -0.535
     16 O3P        32.1520   20.2280   -1.7260 O.co2     1 SUB1       -0.535
     17 H11        29.0089   15.5088   -5.2392 H         1 SUB1        0.097
     18 H21        29.9735   15.2523   -3.0148 H         1 SUB1        0.093
     19 H31        27.3772   16.4634   -1.9609 H         1 SUB1        0.068
     20 H41        30.2297   17.5404   -1.8956 H         1 SUB1        0.065
     21 H51        27.7971   18.6150   -3.4531 H         1 SUB1        0.065
     22 H61        29.7145   20.1808   -2.7142 H         1 SUB1        0.064
     23 H62        29.4792   20.0777   -4.4921 H         1 SUB1        0.064
     24 H71        26.8766   16.7904   -3.8356 H         1 SUB1        0.213
     25 H81        28.5096   13.5915   -3.8072 H         1 SUB1        0.200
     26 H82        27.2168   14.3170   -3.0917 H         1 SUB1        0.200
     27 H83        28.4333   13.7050   -2.1669 H         1 SUB1        0.200
     28 H91        28.6154   16.2605    0.0253 H         1 SUB1        0.210
     29 H101       28.8560   18.2469   -0.1785 H         1 SUB1        0.210
@<TRIPOS>BOND
     1    1   11 1  
     2    1    7 1  
     3    1    2 1  
     4    2    8 1  
     5    2    3 1  
     6    3    9 1  
     7    3    4 1  
     8    4   10 1  
     9    4    5 1  
    10    5   11 1  
    11    5    6 1  
    12    6   12 1  
    13   12   13 1  
    14   13   16 2  
    15   13   15 2  
    16   13   14 2  
    17    1   17 1  
    18    2   18 1  
    19    3   19 1  
    20    4   20 1  
    21    5   21 1  
    22    6   22 1  
    23    6   23 1  
    24    7   24 1  
    25    8   25 1  
    26    8   26 1  
    27    8   27 1  
    28    9   28 1  
    29   10   29 1  
@<TRIPOS>SUBSTRUCTURE
     1 SUB1        1 GROUP

