### 
### Created by X-TOOL on Mon Oct 24 22:03:56 2005
### 

@<TRIPOS>MOLECULE
830c_ligand
   48    50     1     0     0
SMALL
GAST_HUCK


@<TRIPOS>ATOM
      1 H31        -6.8590   28.4316   48.7208 H         1 SUB1        0.060
      2 H51       -10.7879   26.7395   49.1445 H         1 SUB1        0.060
      3 C1         -7.5670   27.8520   49.3020 C.ar      1 SUB1       -0.056
      4 C2         -8.8400   27.6210   48.8430 C.ar      1 SUB1        0.029
      5 C3         -9.7960   26.8980   49.5520 C.ar      1 SUB1       -0.056
      6 C4         -9.4490   26.3890   50.7850 C.ar      1 SUB1       -0.028
      7 C5         -8.1740   26.5880   51.2560 C.ar      1 SUB1        0.116
      8 C6         -7.2200   27.3250   50.5210 C.ar      1 SUB1       -0.028
      9 O11        -7.9490   25.9670   52.4690 O.3       1 SUB1       -0.258
     10 C12        -7.3430   26.6340   53.4810 C.ar      1 SUB1        0.116
     11 C13        -6.8690   25.8010   54.4830 C.ar      1 SUB1       -0.027
     12 C14        -6.2710   26.3220   55.6000 C.ar      1 SUB1       -0.045
     13 C15        -6.1960   27.7030   55.7310 C.ar      1 SUB1        0.078
     14 C16        -6.6340   28.5470   54.7140 C.ar      1 SUB1       -0.045
     15 C17        -7.2090   28.0220   53.5770 C.ar      1 SUB1       -0.027
     16 S22        -5.5190   28.4130   57.2150 S.o2      1 SUB1       -0.008
     17 O23        -5.5820   27.5070   58.3390 O.2       1 SUB1       -0.171
     18 O24        -6.2980   29.6010   57.3620 O.2       1 SUB1       -0.171
     19 C25        -3.8780   28.9410   56.7980 C.3       1 SUB1        0.082
     20 C26        -2.6760   27.9890   57.0640 C.3       1 SUB1        0.076
     21 C29        -2.6850   27.4130   58.5200 C.3       1 SUB1       -0.015
     22 C30        -1.3450   26.8280   58.9610 C.3       1 SUB1        0.047
     23 O31        -0.3120   27.8030   58.7340 O.3       1 SUB1       -0.380
     24 C32        -0.1380   28.1300   57.3600 C.3       1 SUB1        0.047
     25 C33        -1.3990   28.8550   56.8740 C.3       1 SUB1       -0.015
     26 C40        -2.6820   26.8850   55.9850 C.2       1 SUB1        0.226
     27 N41        -2.7380   25.5740   56.2570 N.am      1 SUB1       -0.162
     28 O42        -2.5940   27.1550   54.7780 O.2       1 SUB1       -0.346
     29 O43        -2.5310   24.7710   55.1030 O.3       1 SUB1       -0.271
     30 H61       -10.1728   25.8388   51.3753 H         1 SUB1        0.055
     31 H81        -6.2216   27.4734   50.9162 H         1 SUB1        0.055
     32 H111       -6.9727   24.7267   54.3815 H         1 SUB1        0.055
     33 H121       -5.8650   25.6705   56.3654 H         1 SUB1        0.061
     34 H141       -6.5224   29.6203   54.8169 H         1 SUB1        0.061
     35 H151       -7.5490   28.6695   52.7768 H         1 SUB1        0.055
     36 H191       -3.6857   29.8647   57.3634 H         1 SUB1        0.049
     37 H192       -3.8775   29.1636   55.7208 H         1 SUB1        0.049
     38 H211       -3.4443   26.6190   58.5739 H         1 SUB1        0.028
     39 H212       -2.9534   28.2247   59.2122 H         1 SUB1        0.028
     40 H221       -1.1294   25.9198   58.3790 H         1 SUB1        0.056
     41 H222       -1.3864   26.5766   60.0311 H         1 SUB1        0.056
     42 H241        0.0112   27.2106   56.7749 H         1 SUB1        0.056
     43 H242        0.7370   28.7860   57.2417 H         1 SUB1        0.056
     44 H251       -1.5144   29.7885   57.4443 H         1 SUB1        0.028
     45 H252       -1.2844   29.0899   55.8055 H         1 SUB1        0.028
     46 H271       -2.9066   25.2024   57.1699 H         1 SUB1        0.223
     47 H291       -3.2012   24.9660   54.4585 H         1 SUB1        0.250
     48 CL2        -9.3060   28.2050   47.3000 Cl        1 SUB1       -0.080
@<TRIPOS>BOND
     1    3    8 ar 
     2    3    4 ar 
     3    4    5 ar 
     4    5    6 ar 
     5    6    7 ar 
     6    7    9 1  
     7    7    8 ar 
     8    9   10 1  
     9   10   15 ar 
    10   10   11 ar 
    11   11   12 ar 
    12   12   13 ar 
    13   13   16 1  
    14   13   14 ar 
    15   14   15 ar 
    16   16   19 1  
    17   16   18 2  
    18   16   17 2  
    19    4   48 1  
    20    3    1 1  
    21   19   20 1  
    22   20   26 1  
    23   20   25 1  
    24   20   21 1  
    25    5    2 1  
    26    6   30 1  
    27   21   22 1  
    28    8   31 1  
    29   11   32 1  
    30   22   23 1  
    31   23   24 1  
    32   12   33 1  
    33   14   34 1  
    34   24   25 1  
    35   15   35 1  
    36   19   36 1  
    37   26   28 2  
    38   26   27 am 
    39   27   29 1  
    40   19   37 1  
    41   21   38 1  
    42   21   39 1  
    43   22   40 1  
    44   22   41 1  
    45   24   42 1  
    46   24   43 1  
    47   25   44 1  
    48   25   45 1  
    49   27   46 1  
    50   29   47 1  
@<TRIPOS>SUBSTRUCTURE
     1 SUB1        1 GROUP

