830c_ligand
  -I-interpret- 

 48 50  0  0  0  0  0  0  0  0999 V2000
   -6.8590   28.4316   48.7208 H   0  0  0  0  0
  -10.7879   26.7395   49.1445 H   0  0  0  0  0
   -7.5670   27.8520   49.3020 C   0  0  0  0  0
   -8.8400   27.6210   48.8430 C   0  0  0  0  0
   -9.7960   26.8980   49.5520 C   0  0  0  0  0
   -9.4490   26.3890   50.7850 C   0  0  0  0  0
   -8.1740   26.5880   51.2560 C   0  0  0  0  0
   -7.2200   27.3250   50.5210 C   0  0  0  0  0
   -7.9490   25.9670   52.4690 O   0  0  0  0  0
   -7.3430   26.6340   53.4810 C   0  0  0  0  0
   -6.8690   25.8010   54.4830 C   0  0  0  0  0
   -6.2710   26.3220   55.6000 C   0  0  0  0  0
   -6.1960   27.7030   55.7310 C   0  0  0  0  0
   -6.6340   28.5470   54.7140 C   0  0  0  0  0
   -7.2090   28.0220   53.5770 C   0  0  0  0  0
   -5.5190   28.4130   57.2150 S   0  0  0  0  0
   -5.5820   27.5070   58.3390 O   0  0  0  0  0
   -6.2980   29.6010   57.3620 O   0  0  0  0  0
   -3.8780   28.9410   56.7980 C   0  0  0  0  0
   -2.6760   27.9890   57.0640 C   0  0  0  0  0
   -2.6850   27.4130   58.5200 C   0  0  0  0  0
   -1.3450   26.8280   58.9610 C   0  0  0  0  0
   -0.3120   27.8030   58.7340 O   0  0  0  0  0
   -0.1380   28.1300   57.3600 C   0  0  0  0  0
   -1.3990   28.8550   56.8740 C   0  0  0  0  0
   -2.6820   26.8850   55.9850 C   0  0  0  0  0
   -2.7380   25.5740   56.2570 N   0  0  0  0  0
   -2.5940   27.1550   54.7780 O   0  0  0  0  0
   -2.5310   24.7710   55.1030 O   0  0  0  0  0
  -10.1728   25.8388   51.3753 H   0  0  0  0  0
   -6.2216   27.4734   50.9162 H   0  0  0  0  0
   -6.9727   24.7267   54.3815 H   0  0  0  0  0
   -5.8650   25.6705   56.3654 H   0  0  0  0  0
   -6.5224   29.6203   54.8169 H   0  0  0  0  0
   -7.5490   28.6695   52.7768 H   0  0  0  0  0
   -3.6857   29.8647   57.3634 H   0  0  0  0  0
   -3.8775   29.1636   55.7208 H   0  0  0  0  0
   -3.4443   26.6190   58.5739 H   0  0  0  0  0
   -2.9534   28.2247   59.2122 H   0  0  0  0  0
   -1.1294   25.9198   58.3790 H   0  0  0  0  0
   -1.3864   26.5766   60.0311 H   0  0  0  0  0
    0.0112   27.2106   56.7749 H   0  0  0  0  0
    0.7370   28.7860   57.2417 H   0  0  0  0  0
   -1.5144   29.7885   57.4443 H   0  0  0  0  0
   -1.2844   29.0899   55.8055 H   0  0  0  0  0
   -2.9066   25.2024   57.1699 H   0  0  0  0  0
   -3.2012   24.9660   54.4585 H   0  0  0  0  0
   -9.3060   28.2050   47.3000 Cl  0  0  0  0  0
  3  8  4  0  0  0
  3  4  4  0  0  0
  4  5  4  0  0  0
  5  6  4  0  0  0
  6  7  4  0  0  0
  7  9  1  0  0  0
  7  8  4  0  0  0
  9 10  1  0  0  0
 10 15  4  0  0  0
 10 11  4  0  0  0
 11 12  4  0  0  0
 12 13  4  0  0  0
 13 16  1  0  0  0
 13 14  4  0  0  0
 14 15  4  0  0  0
 16 19  1  0  0  0
 16 18  2  0  0  0
 16 17  2  0  0  0
  4 48  1  0  0  0
  3  1  1  0  0  0
 19 20  1  0  0  0
 20 26  1  0  0  0
 20 25  1  0  0  0
 20 21  1  0  0  0
  5  2  1  0  0  0
  6 30  1  0  0  0
 21 22  1  0  0  0
  8 31  1  0  0  0
 11 32  1  0  0  0
 22 23  1  0  0  0
 23 24  1  0  0  0
 12 33  1  0  0  0
 14 34  1  0  0  0
 24 25  1  0  0  0
 15 35  1  0  0  0
 19 36  1  0  0  0
 26 28  2  0  0  0
 26 27  1  0  0  0
 27 29  1  0  0  0
 19 37  1  0  0  0
 21 38  1  0  0  0
 21 39  1  0  0  0
 22 40  1  0  0  0
 22 41  1  0  0  0
 24 42  1  0  0  0
 24 43  1  0  0  0
 25 44  1  0  0  0
 25 45  1  0  0  0
 27 46  1  0  0  0
 29 47  1  0  0  0
M  END
$$$$
