### 
### Created by X-TOOL on Tue Oct 25 02:38:19 2005
### 

@<TRIPOS>MOLECULE
1i00_ligand
   52    54     1     0     0
SMALL
GAST_HUCK


@<TRIPOS>ATOM
      1 N1         38.3940   58.0230   47.2850 N.pl3     1 SUB1       -0.231
      2 C2         38.5690   56.8360   47.9710 C.2       1 SUB1        0.135
      3 CM2        39.8520   56.0670   47.8810 C.3       1 SUB1        0.029
      4 N3         37.5000   56.3680   48.7640 N.2       1 SUB1       -0.271
      5 C4         36.2640   57.0580   48.8890 C.2       1 SUB1        0.154
      6 O4         35.3670   56.6160   49.5870 O.2       1 SUB1       -0.404
      7 C4A        36.1340   58.2770   48.1650 C.ar      1 SUB1        0.054
      8 C5         34.9740   59.0690   48.1950 C.ar      1 SUB1       -0.048
      9 C6         34.8190   60.2930   47.4820 C.ar      1 SUB1       -0.024
     10 C7         35.9210   60.7260   46.6910 C.ar      1 SUB1       -0.061
     11 C8         37.1340   59.9730   46.6110 C.ar      1 SUB1       -0.034
     12 C8A        37.2130   58.7550   47.3580 C.ar      1 SUB1        0.089
     13 C9         33.5140   61.1320   47.5520 C.3       1 SUB1        0.063
     14 N10        32.3680   60.7160   48.5220 N.pl3     1 SUB1       -0.282
     15 C11        33.1580   61.3090   52.3440 C.ar      1 SUB1        0.079
     16 S13        33.8710   61.4920   50.7740 S.3       1 SUB1       -0.006
     17 C14        32.4890   60.8590   49.9640 C.ar      1 SUB1        0.112
     18 C15        31.5560   60.5310   50.9080 C.ar      1 SUB1       -0.053
     19 C16        31.9190   60.7790   52.2390 C.ar      1 SUB1       -0.078
     20 C          34.0060   61.7590   53.5680 C.2       1 SUB1        0.192
     21 O          35.1570   62.2250   53.3430 O.2       1 SUB1       -0.403
     22 N          33.4510   61.6230   54.8440 N.am      1 SUB1       -0.275
     23 CA         34.2460   62.0290   56.0340 C.3       1 SUB1        0.082
     24 CB         34.3380   63.5200   56.2880 C.3       1 SUB1       -0.007
     25 CG         33.2210   64.5000   56.0330 C.3       1 SUB1       -0.009
     26 CD         33.0590   65.5730   57.0820 C.2       1 SUB1        0.028
     27 OE1        33.5380   66.6960   56.7950 O.co2     1 SUB1       -0.567
     28 OE2        32.4620   65.2440   58.1350 O.co2     1 SUB1       -0.567
     29 CT         33.7060   61.1800   57.1640 C.2       1 SUB1        0.053
     30 O1         34.5400   60.4310   57.7170 O.co2     1 SUB1       -0.564
     31 O2         32.4780   61.3010   57.4240 O.co2     1 SUB1       -0.564
     32 CP1        31.1480   60.2040   47.8920 C.3       1 SUB1        0.024
     33 H11        39.1639   58.3777   46.6999 H         1 SUB1        0.233
     34 H31        39.7800   55.1600   48.4992 H         1 SUB1        0.054
     35 H32        40.6808   56.6928   48.2434 H         1 SUB1        0.054
     36 H33        40.0370   55.7836   46.8344 H         1 SUB1        0.054
     37 H81        34.1424   58.7265   48.8002 H         1 SUB1        0.058
     38 H101       35.8381   61.6522   46.1340 H         1 SUB1        0.057
     39 H111       37.9657   60.3134   46.0049 H         1 SUB1        0.055
     40 H131       33.0855   61.1368   46.5389 H         1 SUB1        0.067
     41 H132       33.8091   62.1545   47.8302 H         1 SUB1        0.067
     42 H181       30.5948   60.1054   50.6435 H         1 SUB1        0.023
     43 H191       31.2785   60.5694   53.0881 H         1 SUB1        0.047
     44 H221       32.5275   61.2559   54.9558 H         1 SUB1        0.188
     45 H231       35.2831   61.7077   55.8573 H         1 SUB1        0.078
     46 H241       35.1846   63.8719   55.6802 H         1 SUB1        0.036
     47 H242       34.5845   63.6236   57.3550 H         1 SUB1        0.036
     48 H251       32.2788   63.9353   55.9748 H         1 SUB1        0.049
     49 H252       33.4134   64.9927   55.0685 H         1 SUB1        0.049
     50 H321       30.4149   59.9444   48.6699 H         1 SUB1        0.049
     51 H322       31.3887   59.3078   47.3013 H         1 SUB1        0.049
     52 H323       30.7246   60.9754   47.2320 H         1 SUB1        0.049
@<TRIPOS>BOND
     1    1    2 1  
     2   12    1 1  
     3    2    3 1  
     4    4    2 2  
     5    5    4 1  
     6    5    6 2  
     7    7    5 1  
     8    8    7 ar 
     9    7   12 ar 
    10    9    8 ar 
    11    9   10 ar 
    12   13    9 1  
    13   10   11 ar 
    14   11   12 ar 
    15   14   13 1  
    16   17   14 1  
    17   14   32 1  
    18   16   15 1  
    19   15   19 ar 
    20   15   20 1  
    21   16   17 1  
    22   17   18 ar 
    23   18   19 ar 
    24   20   21 2  
    25   20   22 am 
    26   22   23 1  
    27   23   24 1  
    28   23   29 1  
    29   24   25 1  
    30   25   26 1  
    31   26   27 2  
    32   26   28 2  
    33   29   30 2  
    34   29   31 2  
    35    1   33 1  
    36    3   34 1  
    37    3   35 1  
    38    3   36 1  
    39    8   37 1  
    40   10   38 1  
    41   11   39 1  
    42   13   40 1  
    43   13   41 1  
    44   18   42 1  
    45   19   43 1  
    46   22   44 1  
    47   23   45 1  
    48   24   46 1  
    49   24   47 1  
    50   25   48 1  
    51   25   49 1  
    52   32   50 1  
    53   32   51 1  
    54   32   52 1  
@<TRIPOS>SUBSTRUCTURE
     1 SUB1        1 GROUP

