### 
### Created by X-TOOL on Tue Oct 25 00:51:23 2005
### 

@<TRIPOS>MOLECULE
1c4u_ligand
   66    69     1     0     0
SMALL
GAST_HUCK


@<TRIPOS>ATOM
      1 H181       21.2439  -13.2831   26.4640 H         1 SUB1        0.064
      2 H191       19.1291  -14.4128   27.0662 H         1 SUB1        0.064
      3 H211       20.2753  -17.9880   25.1263 H         1 SUB1        0.064
      4 H221       22.4197  -16.9197   24.5491 H         1 SUB1        0.064
      5 H261       16.8678  -18.6944   25.3373 H         1 SUB1        0.053
      6 H262       18.5177  -18.5430   24.6433 H         1 SUB1        0.053
      7 H271       16.1846  -16.5747   24.1905 H         1 SUB1        0.059
      8 H272       16.7383  -17.8281   23.0289 H         1 SUB1        0.059
      9 H281       18.4132  -12.2444   22.5304 H         1 SUB1        0.094
     10 H291       19.9524  -11.8566   20.8041 H         1 SUB1        0.049
     11 H301       21.5825  -13.4574   20.2623 H         1 SUB1        0.048
     12 H311       21.2781  -15.4404   21.9708 H         1 SUB1        0.067
     13 H312       20.4462  -15.8300   20.4272 H         1 SUB1        0.067
     14 H411       14.7128  -12.9719   19.6937 H         1 SUB1        0.052
     15 H412       15.0853  -11.2326   19.9446 H         1 SUB1        0.052
     16 H421       12.8949  -12.2757   20.3401 H         1 SUB1        0.032
     17 C27        21.9140  -15.0870   25.5810 C.ar      1 SUB1        0.013
     18 C28        21.0480  -14.3190   26.2120 C.ar      1 SUB1       -0.050
     19 C29        19.8910  -14.9510   26.5140 C.ar      1 SUB1       -0.034
     20 C24        19.6460  -16.2650   26.1410 C.ar      1 SUB1        0.091
     21 C25        20.5030  -16.9760   25.4410 C.ar      1 SUB1       -0.034
     22 C26        21.6750  -16.3910   25.1330 C.ar      1 SUB1       -0.050
     23 S          18.1600  -17.1020   26.4320 S.o2      1 SUB1        0.000
     24 O1         17.2280  -16.0250   26.7360 O.2       1 SUB1       -0.169
     25 O2         18.4440  -17.9820   27.5840 O.2       1 SUB1       -0.169
     26 C23        17.6480  -17.9860   25.0220 C.3       1 SUB1        0.095
     27 C22        17.0590  -17.1230   23.8100 C.3       1 SUB1        0.080
     28 C13        18.4770  -13.0140   21.7470 C.3       1 SUB1        0.176
     29 C14        19.7290  -12.8770   21.1120 C.2       1 SUB1       -0.051
     30 C15        20.6890  -13.7440   20.8150 C.2       1 SUB1       -0.069
     31 C16        20.4550  -15.1580   21.2980 C.3       1 SUB1        0.078
     32 C19        19.0290  -16.4530   22.6890 C.2       1 SUB1        0.317
     33 C21        17.5700  -14.8640   23.0450 C.2       1 SUB1        0.319
     34 N17        19.2900  -15.2970   21.9610 N.am      1 SUB1       -0.135
     35 N18        18.5340  -14.2870   22.4350 N.am      1 SUB1       -0.115
     36 O21        16.5860  -14.3920   23.3750 O.2       1 SUB1       -0.390
     37 O19        19.7750  -17.4080   22.5830 O.2       1 SUB1       -0.390
     38 N20        17.8950  -16.2050   23.2180 N.am      1 SUB1       -0.152
     39 C12        17.1880  -12.6810   20.7050 C.2       1 SUB1        0.212
     40 O12        17.3750  -12.1980   19.5280 O.2       1 SUB1       -0.392
     41 C1         14.8760  -12.1880   20.4480 C.3       1 SUB1        0.034
     42 C2         13.6350  -12.0180   21.1120 C.3       1 SUB1       -0.021
     43 C3         13.1260  -10.6710   21.5830 C.3       1 SUB1       -0.044
     44 C4         11.9440  -10.7790   22.3690 C.3       1 SUB1       -0.004
     45 C5         12.2410  -11.6020   23.7210 C.3       1 SUB1        0.149
     46 C6         12.5930  -12.9820   23.0890 C.3       1 SUB1       -0.004
     47 N9         15.8230  -12.4690   20.9900 N.am      1 SUB1       -0.283
     48 C7         13.5510  -13.1730   22.1480 C.3       1 SUB1       -0.044
     49 C8         10.9750  -11.8100   24.2710 C.cat     1 SUB1        0.282
     50 N11        10.3730  -12.9340   24.2100 N.pl3     1 SUB1       -0.205
     51 N10        10.4990  -10.8270   24.9970 N.pl3     1 SUB1       -0.205
     52 BR         23.4420  -14.3210   25.1250 Br        1 SUB1       -0.050
     53 H431       12.9084  -10.0486   20.7025 H         1 SUB1        0.027
     54 H432       13.9089  -10.1899   22.1877 H         1 SUB1        0.027
     55 H441       11.1698  -11.3025   21.7889 H         1 SUB1        0.031
     56 H442       11.5886   -9.7711   22.6292 H         1 SUB1        0.031
     57 H451       12.9877  -11.1696   24.4032 H         1 SUB1        0.087
     58 H461       11.6587  -13.3482   22.6386 H         1 SUB1        0.031
     59 H462       12.8727  -13.6309   23.9320 H         1 SUB1        0.031
     60 H471       15.6416  -12.6102   21.9632 H         1 SUB1        0.185
     61 H481       14.5241  -13.2600   22.6534 H         1 SUB1        0.027
     62 H482       13.3316  -14.1078   21.6114 H         1 SUB1        0.027
     63 H501        9.4388  -13.0414   24.6304 H         1 SUB1        0.192
     64 H502       10.8214  -13.7336   23.7404 H         1 SUB1        0.192
     65 H511        9.5700  -10.9122   25.4336 H         1 SUB1        0.192
     66 H512       11.0542   -9.9698   25.1306 H         1 SUB1        0.192
@<TRIPOS>BOND
     1   17   52 1  
     2   18    1 1  
     3   19    2 1  
     4   21    3 1  
     5   22    4 1  
     6   26    5 1  
     7   26    6 1  
     8   27    7 1  
     9   27    8 1  
    10   28    9 1  
    11   29   10 1  
    12   30   11 1  
    13   31   12 1  
    14   31   13 1  
    15   41   14 1  
    16   41   15 1  
    17   22   17 ar 
    18   18   17 ar 
    19   19   18 ar 
    20   20   19 ar 
    21   23   20 1  
    22   20   21 ar 
    23   21   22 ar 
    24   26   23 1  
    25   23   25 2  
    26   23   24 2  
    27   27   26 1  
    28   38   27 1  
    29   32   38 am 
    30   33   38 am 
    31   35   33 am 
    32   33   36 2  
    33   35   34 1  
    34   28   35 1  
    35   39   28 1  
    36   28   29 1  
    37   29   30 2  
    38   30   31 1  
    39   34   31 1  
    40   34   32 am 
    41   32   37 2  
    42   47   39 am 
    43   39   40 2  
    44   47   41 1  
    45   41   42 1  
    46   42   48 1  
    47   42   43 1  
    48   43   44 1  
    49   44   45 1  
    50   45   49 1  
    51   45   46 1  
    52   46   48 1  
    53   49   51 1  
    54   49   50 1  
    55   42   16 1  
    56   43   53 1  
    57   43   54 1  
    58   44   55 1  
    59   44   56 1  
    60   45   57 1  
    61   46   58 1  
    62   46   59 1  
    63   47   60 1  
    64   48   61 1  
    65   48   62 1  
    66   50   63 1  
    67   50   64 1  
    68   51   65 1  
    69   51   66 1  
@<TRIPOS>SUBSTRUCTURE
     1 SUB1        1 GROUP

