2h3e_ligand
  -I-interpret- 

 24 23  0  0  0  0  0  0  0  0999 V2000
   68.5170   48.0160   63.2800 O   0  5  0  0  0
   67.3700   49.1450   63.2550 P   0  0  0  0  0
   66.8110   49.1740   61.7470 O   0  5  0  0  0
   66.3130   48.8940   64.2610 O   0  0  0  0  0
   68.2340   50.7140   63.5080 C   0  0  0  0  0
   67.3700   51.9350   63.1790 C   0  0  0  0  0
   66.3690   52.2010   63.8400 O   0  0  0  0  0
   67.7930   52.6470   62.1350 N   0  0  0  0  0
   67.1230   53.8720   61.6730 C   0  0  0  0  0
   67.9840   54.5670   60.6140 C   0  0  0  0  0
   68.2270   53.7110   59.3680 C   0  0  0  0  0
   67.4550   52.7500   59.1600 O   0  5  0  0  0
   69.1860   54.0470   58.6400 O   0  0  0  0  0
   65.7190   53.6050   61.1260 C   0  0  0  0  0
   65.2440   52.4720   61.0900 O   0  0  0  0  0
   65.0730   54.6890   60.7050 N   0  0  0  0  0
   69.0962   50.7288   62.8412 H   0  0  0  0  0
   68.5074   50.7756   64.5614 H   0  0  0  0  0
   68.6209   52.3271   61.6324 H   0  0  0  0  0
   67.0049   54.5241   62.5384 H   0  0  0  0  0
   68.9548   54.7735   61.0645 H   0  0  0  0  0
   67.4529   55.4645   60.2969 H   0  0  0  0  0
   64.1296   54.6056   60.3264 H   0  0  0  0  0
   65.5211   55.6036   60.7608 H   0  0  0  0  0
  1  2  1  0  0  0
  2  3  1  0  0  0
  2  4  2  0  0  0
  2  5  1  0  0  0
  5  6  1  0  0  0
  6  7  2  0  0  0
  6  8  1  0  0  0
  8  9  1  0  0  0
  9 10  1  0  0  0
  9 14  1  0  0  0
 10 11  1  0  0  0
 11 12  1  0  0  0
 11 13  2  0  0  0
 14 15  2  0  0  0
 14 16  1  0  0  0
  5 17  1  0  0  0
  5 18  1  0  0  0
  8 19  1  0  0  0
  9 20  1  0  0  0
 10 21  1  0  0  0
 10 22  1  0  0  0
 16 23  1  0  0  0
 16 24  1  0  0  0
M  END
$$$$
