### 
### Created by X-TOOL on Sun Jun  3 12:41:23 2007
### 

@<TRIPOS>MOLECULE
2h3e_ligand
   24    23     1     0     0
SMALL
GAST_HUCK


@<TRIPOS>ATOM
      1 OAH        68.5170   48.0160   63.2800 O.2       1 SUB1       -0.229
      2 PAP        67.3700   49.1450   63.2550 P.3       1 SUB1        0.493
      3 OAG        66.8110   49.1740   61.7470 O.2       1 SUB1       -0.229
      4 OAE        66.3130   48.8940   64.2610 O.2       1 SUB1       -0.229
      5 CAJ        68.2340   50.7140   63.5080 C.3       1 SUB1        0.180
      6 CAN        67.3700   51.9350   63.1790 C.2       1 SUB1        0.201
      7 OAD        66.3690   52.2010   63.8400 O.2       1 SUB1       -0.395
      8 N          67.7930   52.6470   62.1350 N.am      1 SUB1       -0.263
      9 CA         67.1230   53.8720   61.6730 C.3       1 SUB1        0.147
     10 CB         67.9840   54.5670   60.6140 C.3       1 SUB1        0.101
     11 CG         68.2270   53.7110   59.3680 C.2       1 SUB1        0.350
     12 OD2        67.4550   52.7500   59.1600 O.2       1 SUB1       -0.262
     13 OD1        69.1860   54.0470   58.6400 O.2       1 SUB1       -0.262
     14 C          65.7190   53.6050   61.1260 C.2       1 SUB1        0.201
     15 O          65.2440   52.4720   61.0900 O.2       1 SUB1       -0.395
     16 NAA        65.0730   54.6890   60.7050 N.am      1 SUB1       -0.299
     17 H          69.0962   50.7288   62.8412 H         1 SUB1        0.076
     18 H          68.5074   50.7756   64.5614 H         1 SUB1        0.076
     19 H          68.6209   52.3271   61.6324 H         1 SUB1        0.188
     20 H          67.0049   54.5241   62.5384 H         1 SUB1        0.082
     21 H          68.9548   54.7735   61.0645 H         1 SUB1        0.053
     22 H          67.4529   55.4645   60.2969 H         1 SUB1        0.053
     23 H          64.1296   54.6056   60.3264 H         1 SUB1        0.182
     24 H          65.5211   55.6036   60.7608 H         1 SUB1        0.182
@<TRIPOS>BOND
     1    1    2 2  
     2    2    3 2  
     3    2    4 2  
     4    2    5 1  
     5    5    6 1  
     6    6    7 2  
     7    6    8 am 
     8    8    9 1  
     9    9   10 1  
    10    9   14 1  
    11   10   11 1  
    12   11   12 2  
    13   11   13 2  
    14   14   15 2  
    15   14   16 am 
    16    5   17 1  
    17    5   18 1  
    18    8   19 1  
    19    9   20 1  
    20   10   21 1  
    21   10   22 1  
    22   16   23 1  
    23   16   24 1  
@<TRIPOS>SUBSTRUCTURE
     1 SUB1        1 GROUP

