### 
### Created by X-TOOL on Mon Oct 24 23:08:10 2005
### 

@<TRIPOS>MOLECULE
1izh_ligand
   99   101     1     0     0
SMALL
GAST_HUCK


@<TRIPOS>ATOM
      1 O49        17.7390   14.9760    5.8160 O.2       1 SUB1       -0.395
      2 C48        18.7310   15.4960    5.3870 C.2       1 SUB1        0.201
      3 N50        19.5420   14.9160    4.4730 N.am      1 SUB1       -0.299
      4 C40        19.0200   16.8930    5.8830 C.3       1 SUB1        0.140
      5 C41        19.6640   16.8490    7.2620 C.3       1 SUB1        0.021
      6 C42        18.8460   16.2080    8.3310 C.ar      1 SUB1       -0.039
      7 C43        17.9980   17.0110    9.0630 C.ar      1 SUB1       -0.060
      8 C44        17.1940   16.4610   10.0440 C.ar      1 SUB1       -0.069
      9 C45        17.3020   15.1160   10.3240 C.ar      1 SUB1       -0.069
     10 C46        18.1740   14.3070    9.6040 C.ar      1 SUB1       -0.069
     11 C47        18.9600   14.8350    8.6010 C.ar      1 SUB1       -0.060
     12 N39        17.7630   17.6720    5.8330 N.am      1 SUB1       -0.262
     13 C37        17.7050   18.9640    5.4510 C.2       1 SUB1        0.204
     14 O38        18.6960   19.6900    5.2780 O.2       1 SUB1       -0.394
     15 C31        16.2900   19.4800    5.3320 C.3       1 SUB1        0.133
     16 C32        15.7940   19.5590    3.8840 C.3       1 SUB1        0.004
     17 C33        15.6970   18.2300    3.1140 C.3       1 SUB1        0.041
     18 C34        17.0490   17.8280    2.5830 C.2       1 SUB1        0.174
     19 O35        17.7960   18.6550    2.0740 O.2       1 SUB1       -0.397
     20 N36        17.3610   16.5420    2.6910 N.am      1 SUB1       -0.301
     21 N30        16.1850   20.8720    5.6940 N.am      1 SUB1       -0.265
     22 C28        15.0460   21.3940    6.1270 C.2       1 SUB1        0.183
     23 O29        14.0120   20.7170    6.2180 O.2       1 SUB1       -0.396
     24 C20        15.0840   22.8800    6.4190 C.3       1 SUB1        0.061
     25 C21        15.6510   23.3280    7.7350 C.3       1 SUB1        0.001
     26 C22        15.5260   22.2030    8.6680 C.ar      1 SUB1       -0.041
     27 C23        14.3090   21.9370    9.2910 C.ar      1 SUB1       -0.060
     28 C24        14.2700   20.8360   10.1510 C.ar      1 SUB1       -0.069
     29 C25        15.4180   20.0660   10.3660 C.ar      1 SUB1       -0.069
     30 C26        16.5890   20.3380    9.7170 C.ar      1 SUB1       -0.069
     31 C27        16.6440   21.4230    8.8610 C.ar      1 SUB1       -0.060
     32 C19        13.6800   23.4380    6.3340 C.3       1 SUB1       -0.003
     33 C17        13.4230   23.7170    4.8570 C.3       1 SUB1        0.082
     34 O18        14.0780   24.9530    4.5370 O.3       1 SUB1       -0.389
     35 C9         11.9070   23.6980    4.5770 C.3       1 SUB1        0.079
     36 N8         11.2360   24.8030    5.2760 N.am      1 SUB1       -0.255
     37 C6         10.7190   24.6790    6.4730 C.2       1 SUB1        0.320
     38 O7         10.7920   23.6130    7.0740 O.2       1 SUB1       -0.377
     39 O5         10.0650   25.8830    7.0100 O.3       1 SUB1       -0.258
     40 C1          9.5900   26.1170    8.3260 C.3       1 SUB1        0.090
     41 C4         10.7050   25.8170    9.3020 C.3       1 SUB1       -0.032
     42 C3          8.3440   25.2760    8.5850 C.3       1 SUB1       -0.032
     43 C2          9.2050   27.5960    8.4100 C.3       1 SUB1       -0.032
     44 C10        11.5760   23.9060    3.1030 C.3       1 SUB1        0.006
     45 C11        10.0660   23.8980    2.8660 C.ar      1 SUB1       -0.041
     46 C12         9.4310   25.0740    2.5610 C.ar      1 SUB1       -0.060
     47 C13         8.0520   25.1340    2.3730 C.ar      1 SUB1       -0.069
     48 C14         7.2930   23.9690    2.4790 C.ar      1 SUB1       -0.069
     49 C15         7.9340   22.7860    2.7650 C.ar      1 SUB1       -0.069
     50 C16         9.3110   22.7290    2.9780 C.ar      1 SUB1       -0.060
     51 H31        20.3571   15.3974    4.1508 H         1 SUB1        0.182
     52 H32        19.3265   14.0058    4.1194 H         1 SUB1        0.182
     53 H41        19.7388   17.3664    5.1981 H         1 SUB1        0.082
     54 H51        19.8751   17.8834    7.5709 H         1 SUB1        0.047
     55 H52        20.6085   16.2915    7.1776 H         1 SUB1        0.047
     56 H71        17.9614   18.0769    8.8689 H         1 SUB1        0.056
     57 H81        16.4878   17.0797   10.5859 H         1 SUB1        0.060
     58 H91        16.7000   14.6836   11.1150 H         1 SUB1        0.056
     59 H101       18.2368   13.2494    9.8335 H         1 SUB1        0.060
     60 H111       19.6441   14.2096    8.0390 H         1 SUB1        0.056
     61 H121       16.9124   17.2168    6.0961 H         1 SUB1        0.189
     62 H151       15.6296   18.8514    5.9474 H         1 SUB1        0.080
     63 H161       16.4822   20.2152    3.3311 H         1 SUB1        0.034
     64 H162       14.7906   20.0095    3.8993 H         1 SUB1        0.034
     65 H171       14.9985   18.3492    2.2727 H         1 SUB1        0.050
     66 H172       15.3260   17.4459    3.7904 H         1 SUB1        0.050
     67 H201       18.2440   16.2120    2.3572 H         1 SUB1        0.181
     68 H202       16.7130   15.9034    3.1061 H         1 SUB1        0.181
     69 H211       16.9915   21.4581    5.6164 H         1 SUB1        0.188
     70 H241       15.6978   23.3398    5.6304 H         1 SUB1        0.056
     71 H251       15.0881   24.1945    8.1123 H         1 SUB1        0.045
     72 H252       16.7095   23.6022    7.6153 H         1 SUB1        0.045
     73 H271       13.4347   22.5539    9.1173 H         1 SUB1        0.056
     74 H281       13.3453   20.5773   10.6541 H         1 SUB1        0.060
     75 H291       15.3776   19.2361   11.0622 H         1 SUB1        0.056
     76 H301       17.4614   19.7132    9.8705 H         1 SUB1        0.060
     77 H311       17.5663   21.6590    8.3426 H         1 SUB1        0.056
     78 H321       13.6030   24.3677    6.9169 H         1 SUB1        0.032
     79 H322       12.9543   22.7048    6.7156 H         1 SUB1        0.032
     80 H331       13.8830   22.9200    4.2543 H         1 SUB1        0.062
     81 H341       15.0037   24.8809    4.7380 H         1 SUB1        0.210
     82 H351       11.5003   22.7337    4.9156 H         1 SUB1        0.060
     83 H361       11.1713   25.6892    4.8172 H         1 SUB1        0.187
     84 H411       10.3513   25.9941   10.3284 H         1 SUB1        0.026
     85 H412       11.5628   26.4726    9.0916 H         1 SUB1        0.026
     86 H413       11.0120   24.7660    9.1962 H         1 SUB1        0.026
     87 H421        7.9816   25.4626    9.6067 H         1 SUB1        0.026
     88 H422        8.5912   24.2101    8.4726 H         1 SUB1        0.026
     89 H423        7.5607   25.5489    7.8626 H         1 SUB1        0.026
     90 H431        8.8298   27.8204    9.4194 H         1 SUB1        0.026
     91 H432        8.4202   27.8132    7.6704 H         1 SUB1        0.026
     92 H433       10.0883   28.2173    8.2007 H         1 SUB1        0.026
     93 H441       12.0351   23.0975    2.5152 H         1 SUB1        0.045
     94 H442       11.9846   24.8739    2.7772 H         1 SUB1        0.045
     95 H461       10.0171   25.9807    2.4636 H         1 SUB1        0.056
     96 H471        7.5725   26.0793    2.1460 H         1 SUB1        0.060
     97 H481        6.2184   23.9951    2.3387 H         1 SUB1        0.056
     98 H491        7.3528   21.8730    2.8265 H         1 SUB1        0.060
     99 H501        9.7892   21.7887    3.2274 H         1 SUB1        0.056
@<TRIPOS>BOND
     1    1    2 2  
     2    2    4 1  
     3    2    3 am 
     4    4   12 1  
     5    4    5 1  
     6    5    6 1  
     7    6   11 ar 
     8    6    7 ar 
     9    7    8 ar 
    10    8    9 ar 
    11    9   10 ar 
    12   10   11 ar 
    13   12   13 am 
    14   13   15 1  
    15   13   14 2  
    16   15   21 1  
    17   15   16 1  
    18   16   17 1  
    19   17   18 1  
    20   18   20 am 
    21   18   19 2  
    22   21   22 am 
    23   22   24 1  
    24   22   23 2  
    25   24   32 1  
    26   24   25 1  
    27   25   26 1  
    28   26   31 ar 
    29   26   27 ar 
    30   27   28 ar 
    31   28   29 ar 
    32   29   30 ar 
    33   30   31 ar 
    34   32   33 1  
    35   33   35 1  
    36   33   34 1  
    37   35   44 1  
    38   35   36 1  
    39   36   37 am 
    40   37   39 1  
    41   37   38 2  
    42   39   40 1  
    43   40   43 1  
    44   40   42 1  
    45   40   41 1  
    46   44   45 1  
    47   45   50 ar 
    48   45   46 ar 
    49   46   47 ar 
    50   47   48 ar 
    51   48   49 ar 
    52   49   50 ar 
    53    3   51 1  
    54    3   52 1  
    55    4   53 1  
    56    5   54 1  
    57    5   55 1  
    58    7   56 1  
    59    8   57 1  
    60    9   58 1  
    61   10   59 1  
    62   11   60 1  
    63   12   61 1  
    64   15   62 1  
    65   16   63 1  
    66   16   64 1  
    67   17   65 1  
    68   17   66 1  
    69   20   67 1  
    70   20   68 1  
    71   21   69 1  
    72   24   70 1  
    73   25   71 1  
    74   25   72 1  
    75   27   73 1  
    76   28   74 1  
    77   29   75 1  
    78   30   76 1  
    79   31   77 1  
    80   32   78 1  
    81   32   79 1  
    82   33   80 1  
    83   34   81 1  
    84   35   82 1  
    85   36   83 1  
    86   41   84 1  
    87   41   85 1  
    88   41   86 1  
    89   42   87 1  
    90   42   88 1  
    91   42   89 1  
    92   43   90 1  
    93   43   91 1  
    94   43   92 1  
    95   44   93 1  
    96   44   94 1  
    97   46   95 1  
    98   47   96 1  
    99   48   97 1  
   100   49   98 1  
   101   50   99 1  
@<TRIPOS>SUBSTRUCTURE
     1 SUB1        1 GROUP

