### 
### Created by X-TOOL on Tue Oct 25 02:02:59 2005
### 

@<TRIPOS>MOLECULE
1rek_ligand
   77    80     1     0     0
SMALL
GAST_HUCK


@<TRIPOS>ATOM
      1 O1         17.4550   38.8030   20.0470 O.3       1 SUB1       -0.333
      2 C1         16.0770   39.1820   19.8310 C.ar      1 SUB1        0.095
      3 C2         15.7230   40.5320   19.8190 C.ar      1 SUB1       -0.033
      4 C3         14.3960   40.9000   19.5690 C.ar      1 SUB1       -0.057
      5 C4         13.3930   39.9380   19.3460 C.ar      1 SUB1        0.032
      6 C5         13.7820   38.5800   19.3750 C.ar      1 SUB1       -0.049
      7 C6         15.1130   38.1930   19.6170 C.ar      1 SUB1       -0.005
      8 C7         12.0380   40.3230   19.3110 C.2       1 SUB1        0.196
      9 O7         11.6680   41.5020   19.3660 O.2       1 SUB1       -0.390
     10 N8         11.1770   39.3140   19.1060 N.am      1 SUB1       -0.281
     11 C8          9.7340   39.4380   19.2820 C.3       1 SUB1        0.084
     12 C9          8.9540   39.1420   17.9680 C.3       1 SUB1        0.111
     13 C10         7.5320   38.5560   18.0870 C.3       1 SUB1       -0.019
     14 C11         6.6600   39.3150   19.0750 C.3       1 SUB1       -0.038
     15 C12         6.8090   38.7520   20.4870 C.3       1 SUB1       -0.004
     16 N13         8.1220   39.0270   21.0620 N.3       1 SUB1       -0.314
     17 O9          8.9290   40.4050   17.2870 O.3       1 SUB1       -0.271
     18 C14         9.3870   38.5830   20.4960 C.3       1 SUB1        0.022
     19 C15         8.5220   40.3350   15.8860 C.2       1 SUB1        0.266
     20 O15         8.6230   39.2810   15.2610 O.2       1 SUB1       -0.355
     21 C16         7.7830   41.3680   15.3100 C.ar      1 SUB1        0.066
     22 C17         7.8520   41.6350   13.9320 C.ar      1 SUB1       -0.035
     23 C18         7.1140   42.6800   13.3620 C.ar      1 SUB1       -0.038
     24 C19         6.3030   43.4920   14.1580 C.ar      1 SUB1        0.036
     25 C20         6.2370   43.2300   15.5290 C.ar      1 SUB1       -0.038
     26 C21         6.9760   42.1860   16.0990 C.ar      1 SUB1       -0.035
     27 C22         5.5260   44.5080   13.5760 C.2       1 SUB1        0.155
     28 O22         4.9230   44.2530   12.5260 O.2       1 SUB1       -0.372
     29 C23         5.3570   45.7720   14.1560 C.ar      1 SUB1        0.055
     30 C24         4.0420   46.2140   14.2960 C.ar      1 SUB1       -0.023
     31 C26         3.7410   47.5190   14.7160 C.ar      1 SUB1        0.085
     32 O26         2.3560   47.9510   14.8370 O.3       1 SUB1       -0.327
     33 C27         4.7600   48.4250   14.9870 C.ar      1 SUB1       -0.036
     34 C28         6.0790   48.0090   14.8580 C.ar      1 SUB1       -0.035
     35 C29         6.3720   46.7090   14.4220 C.ar      1 SUB1        0.097
     36 O29         7.7500   46.3220   14.2310 O.3       1 SUB1       -0.335
     37 C66        15.5120   36.7540   19.6510 C.3       1 SUB1       -0.011
     38 C71        15.1790   36.0260   18.3340 C.3       1 SUB1       -0.045
     39 C72        14.9010   36.0550   20.8600 C.3       1 SUB1       -0.054
     40 C81        16.1880   36.3800   17.2120 C.3       1 SUB1       -0.064
     41 C30         1.2890   47.0600   15.0440 C.3       1 SUB1        0.057
     42 H11        17.5288   37.8561   20.0264 H         1 SUB1        0.248
     43 H31        16.4731   41.2927   20.0026 H         1 SUB1        0.054
     44 H41        14.1342   41.9517   19.5466 H         1 SUB1        0.059
     45 H61        13.0336   37.8143   19.2060 H         1 SUB1        0.058
     46 H101       11.5442   38.4299   18.8171 H         1 SUB1        0.185
     47 H111        9.5074   40.4824   19.5423 H         1 SUB1        0.060
     48 H121        9.5427   38.4221   17.3804 H         1 SUB1        0.067
     49 H131        7.6100   37.5102   18.4190 H         1 SUB1        0.030
     50 H132        7.0536   38.5918   17.0971 H         1 SUB1        0.030
     51 H141        5.6082   39.2308   18.7641 H         1 SUB1        0.028
     52 H142        6.9581   40.3738   19.0774 H         1 SUB1        0.028
     53 H151        6.6612   37.6626   20.4500 H         1 SUB1        0.042
     54 H152        6.0402   39.2047   21.1304 H         1 SUB1        0.042
     55 H161        8.0921   38.6154   22.0600 H         1 SUB1        0.122
     56 H181       10.1804   38.6813   21.2516 H         1 SUB1        0.045
     57 H182        9.3011   37.5301   20.1894 H         1 SUB1        0.045
     58 H221        8.4860   41.0229   13.3007 H         1 SUB1        0.068
     59 H231        7.1727   42.8600   12.2947 H         1 SUB1        0.068
     60 H251        5.6047   43.8437   16.1604 H         1 SUB1        0.068
     61 H261        6.9197   42.0118   17.1674 H         1 SUB1        0.068
     62 H301        3.2299   45.5310   14.0744 H         1 SUB1        0.056
     63 H331        4.5292   49.4388   15.2937 H         1 SUB1        0.056
     64 H341        6.8858   48.6928   15.0956 H         1 SUB1        0.053
     65 H361        7.7864   45.4196   13.9363 H         1 SUB1        0.247
     66 H371       16.6050   36.7203   19.7705 H         1 SUB1        0.044
     67 H381       14.1692   36.3185   18.0105 H         1 SUB1        0.029
     68 H382       15.2077   34.9405   18.5096 H         1 SUB1        0.029
     69 H391       15.1636   36.6073   21.7743 H         1 SUB1        0.025
     70 H392       15.2917   35.0289   20.9265 H         1 SUB1        0.025
     71 H393       13.8068   36.0244   20.7517 H         1 SUB1        0.025
     72 H401       15.9165   35.8421   16.2917 H         1 SUB1        0.023
     73 H402       17.2010   36.0855   17.5235 H         1 SUB1        0.023
     74 H403       16.1625   37.4636   17.0244 H         1 SUB1        0.023
     75 H411        0.3463   47.6239   15.1013 H         1 SUB1        0.057
     76 H412        1.4461   46.5120   15.9847 H         1 SUB1        0.057
     77 H413        1.2394   46.3468   14.2080 H         1 SUB1        0.057
@<TRIPOS>BOND
     1    1    2 1  
     2    2    3 ar 
     3    2    7 ar 
     4    3    4 ar 
     5    4    5 ar 
     6    5    6 ar 
     7    5    8 1  
     8    6    7 ar 
     9    7   37 1  
    10    8    9 2  
    11    8   10 am 
    12   10   11 1  
    13   11   12 1  
    14   11   18 1  
    15   12   13 1  
    16   12   17 1  
    17   13   14 1  
    18   14   15 1  
    19   15   16 1  
    20   16   18 1  
    21   17   19 1  
    22   19   20 2  
    23   19   21 1  
    24   21   22 ar 
    25   21   26 ar 
    26   22   23 ar 
    27   23   24 ar 
    28   24   25 ar 
    29   24   27 1  
    30   25   26 ar 
    31   27   28 2  
    32   27   29 1  
    33   29   30 ar 
    34   29   35 ar 
    35   30   31 ar 
    36   31   32 1  
    37   31   33 ar 
    38   32   41 1  
    39   33   34 ar 
    40   34   35 ar 
    41   35   36 1  
    42   37   38 1  
    43   37   39 1  
    44   38   40 1  
    45    1   42 1  
    46    3   43 1  
    47    4   44 1  
    48    6   45 1  
    49   10   46 1  
    50   11   47 1  
    51   12   48 1  
    52   13   49 1  
    53   13   50 1  
    54   14   51 1  
    55   14   52 1  
    56   15   53 1  
    57   15   54 1  
    58   16   55 1  
    59   18   56 1  
    60   18   57 1  
    61   22   58 1  
    62   23   59 1  
    63   25   60 1  
    64   26   61 1  
    65   30   62 1  
    66   33   63 1  
    67   34   64 1  
    68   36   65 1  
    69   37   66 1  
    70   38   67 1  
    71   38   68 1  
    72   39   69 1  
    73   39   70 1  
    74   39   71 1  
    75   40   72 1  
    76   40   73 1  
    77   40   74 1  
    78   41   75 1  
    79   41   76 1  
    80   41   77 1  
@<TRIPOS>SUBSTRUCTURE
     1 SUB1        1 GROUP

