1rek_ligand
  -I-interpret- 

 77 80  0  0  0  0  0  0  0  0999 V2000
   17.4550   38.8030   20.0470 O   0  0  0  0  0
   16.0770   39.1820   19.8310 C   0  0  0  0  0
   15.7230   40.5320   19.8190 C   0  0  0  0  0
   14.3960   40.9000   19.5690 C   0  0  0  0  0
   13.3930   39.9380   19.3460 C   0  0  0  0  0
   13.7820   38.5800   19.3750 C   0  0  0  0  0
   15.1130   38.1930   19.6170 C   0  0  0  0  0
   12.0380   40.3230   19.3110 C   0  0  0  0  0
   11.6680   41.5020   19.3660 O   0  0  0  0  0
   11.1770   39.3140   19.1060 N   0  0  0  0  0
    9.7340   39.4380   19.2820 C   0  0  0  0  0
    8.9540   39.1420   17.9680 C   0  0  0  0  0
    7.5320   38.5560   18.0870 C   0  0  0  0  0
    6.6600   39.3150   19.0750 C   0  0  0  0  0
    6.8090   38.7520   20.4870 C   0  0  0  0  0
    8.1220   39.0270   21.0620 N   0  0  0  0  0
    8.9290   40.4050   17.2870 O   0  0  0  0  0
    9.3870   38.5830   20.4960 C   0  0  0  0  0
    8.5220   40.3350   15.8860 C   0  0  0  0  0
    8.6230   39.2810   15.2610 O   0  0  0  0  0
    7.7830   41.3680   15.3100 C   0  0  0  0  0
    7.8520   41.6350   13.9320 C   0  0  0  0  0
    7.1140   42.6800   13.3620 C   0  0  0  0  0
    6.3030   43.4920   14.1580 C   0  0  0  0  0
    6.2370   43.2300   15.5290 C   0  0  0  0  0
    6.9760   42.1860   16.0990 C   0  0  0  0  0
    5.5260   44.5080   13.5760 C   0  0  0  0  0
    4.9230   44.2530   12.5260 O   0  0  0  0  0
    5.3570   45.7720   14.1560 C   0  0  0  0  0
    4.0420   46.2140   14.2960 C   0  0  0  0  0
    3.7410   47.5190   14.7160 C   0  0  0  0  0
    2.3560   47.9510   14.8370 O   0  0  0  0  0
    4.7600   48.4250   14.9870 C   0  0  0  0  0
    6.0790   48.0090   14.8580 C   0  0  0  0  0
    6.3720   46.7090   14.4220 C   0  0  0  0  0
    7.7500   46.3220   14.2310 O   0  0  0  0  0
   15.5120   36.7540   19.6510 C   0  0  0  0  0
   15.1790   36.0260   18.3340 C   0  0  0  0  0
   14.9010   36.0550   20.8600 C   0  0  0  0  0
   16.1880   36.3800   17.2120 C   0  0  0  0  0
    1.2890   47.0600   15.0440 C   0  0  0  0  0
   17.5288   37.8561   20.0264 H   0  0  0  0  0
   16.4731   41.2927   20.0026 H   0  0  0  0  0
   14.1342   41.9517   19.5466 H   0  0  0  0  0
   13.0336   37.8143   19.2060 H   0  0  0  0  0
   11.5442   38.4299   18.8171 H   0  0  0  0  0
    9.5074   40.4824   19.5423 H   0  0  0  0  0
    9.5427   38.4221   17.3804 H   0  0  0  0  0
    7.6100   37.5102   18.4190 H   0  0  0  0  0
    7.0536   38.5918   17.0971 H   0  0  0  0  0
    5.6082   39.2308   18.7641 H   0  0  0  0  0
    6.9581   40.3738   19.0774 H   0  0  0  0  0
    6.6612   37.6626   20.4500 H   0  0  0  0  0
    6.0402   39.2047   21.1304 H   0  0  0  0  0
    8.0921   38.6154   22.0600 H   0  0  0  0  0
   10.1804   38.6813   21.2516 H   0  0  0  0  0
    9.3011   37.5301   20.1894 H   0  0  0  0  0
    8.4860   41.0229   13.3007 H   0  0  0  0  0
    7.1727   42.8600   12.2947 H   0  0  0  0  0
    5.6047   43.8437   16.1604 H   0  0  0  0  0
    6.9197   42.0118   17.1674 H   0  0  0  0  0
    3.2299   45.5310   14.0744 H   0  0  0  0  0
    4.5292   49.4388   15.2937 H   0  0  0  0  0
    6.8858   48.6928   15.0956 H   0  0  0  0  0
    7.7864   45.4196   13.9363 H   0  0  0  0  0
   16.6050   36.7203   19.7705 H   0  0  0  0  0
   14.1692   36.3185   18.0105 H   0  0  0  0  0
   15.2077   34.9405   18.5096 H   0  0  0  0  0
   15.1636   36.6073   21.7743 H   0  0  0  0  0
   15.2917   35.0289   20.9265 H   0  0  0  0  0
   13.8068   36.0244   20.7517 H   0  0  0  0  0
   15.9165   35.8421   16.2917 H   0  0  0  0  0
   17.2010   36.0855   17.5235 H   0  0  0  0  0
   16.1625   37.4636   17.0244 H   0  0  0  0  0
    0.3463   47.6239   15.1013 H   0  0  0  0  0
    1.4461   46.5120   15.9847 H   0  0  0  0  0
    1.2394   46.3468   14.2080 H   0  0  0  0  0
  1  2  1  0  0  0
  2  3  4  0  0  0
  2  7  4  0  0  0
  3  4  4  0  0  0
  4  5  4  0  0  0
  5  6  4  0  0  0
  5  8  1  0  0  0
  6  7  4  0  0  0
  7 37  1  0  0  0
  8  9  2  0  0  0
  8 10  1  0  0  0
 10 11  1  0  0  0
 11 12  1  0  0  0
 11 18  1  0  0  0
 12 13  1  0  0  0
 12 17  1  0  0  0
 13 14  1  0  0  0
 14 15  1  0  0  0
 15 16  1  0  0  0
 16 18  1  0  0  0
 17 19  1  0  0  0
 19 20  2  0  0  0
 19 21  1  0  0  0
 21 22  4  0  0  0
 21 26  4  0  0  0
 22 23  4  0  0  0
 23 24  4  0  0  0
 24 25  4  0  0  0
 24 27  1  0  0  0
 25 26  4  0  0  0
 27 28  2  0  0  0
 27 29  1  0  0  0
 29 30  4  0  0  0
 29 35  4  0  0  0
 30 31  4  0  0  0
 31 32  1  0  0  0
 31 33  4  0  0  0
 32 41  1  0  0  0
 33 34  4  0  0  0
 34 35  4  0  0  0
 35 36  1  0  0  0
 37 38  1  0  0  0
 37 39  1  0  0  0
 38 40  1  0  0  0
  1 42  1  0  0  0
  3 43  1  0  0  0
  4 44  1  0  0  0
  6 45  1  0  0  0
 10 46  1  0  0  0
 11 47  1  0  0  0
 12 48  1  0  0  0
 13 49  1  0  0  0
 13 50  1  0  0  0
 14 51  1  0  0  0
 14 52  1  0  0  0
 15 53  1  0  0  0
 15 54  1  0  0  0
 16 55  1  0  0  0
 18 56  1  0  0  0
 18 57  1  0  0  0
 22 58  1  0  0  0
 23 59  1  0  0  0
 25 60  1  0  0  0
 26 61  1  0  0  0
 30 62  1  0  0  0
 33 63  1  0  0  0
 34 64  1  0  0  0
 36 65  1  0  0  0
 37 66  1  0  0  0
 38 67  1  0  0  0
 38 68  1  0  0  0
 39 69  1  0  0  0
 39 70  1  0  0  0
 39 71  1  0  0  0
 40 72  1  0  0  0
 40 73  1  0  0  0
 40 74  1  0  0  0
 41 75  1  0  0  0
 41 76  1  0  0  0
 41 77  1  0  0  0
M  END
$$$$
