1fo0_ligand
  -I-interpret- 

135136  0  0  0  0  0  0  0  0999 V2000
   26.6090   42.0530   46.0620 N   0  3  0  0  0
   26.3900   40.6410   46.4320 C   0  0  0  0  0
   24.9150   40.3210   46.6720 C   0  0  0  0  0
   24.1470   41.1170   47.1870 O   0  0  0  0  0
   27.1940   40.2640   47.6880 C   0  0  0  0  0
   26.7320   41.1110   48.8660 C   0  0  0  0  0
   28.6480   40.5650   47.3730 C   0  0  0  0  0
   27.4910   40.8010   50.1280 C   0  0  0  0  0
   24.5470   39.1220   46.2520 N   0  0  0  0  0
   23.2090   38.5980   46.3130 C   0  0  0  0  0
   22.7560   38.3920   47.7400 C   0  0  0  0  0
   23.4640   38.5930   48.7080 O   0  0  0  0  0
   23.1280   37.2960   45.5000 C   0  0  0  0  0
   21.7500   36.9800   44.9770 C   0  0  0  0  0
   20.7520   37.6250   45.3150 O   0  0  0  0  0
   21.5940   35.9800   44.1290 N   0  0  0  0  0
   21.5160   37.9820   47.8940 N   0  0  0  0  0
   20.9270   37.7010   49.2180 C   0  0  0  0  0
   20.8690   36.2110   49.4980 C   0  0  0  0  0
   21.0020   35.3470   48.6110 O   0  0  0  0  0
   19.5320   38.2860   49.1190 C   0  0  0  0  0
   18.5490   38.0700   50.1990 C   0  0  0  0  0
   18.5890   38.7000   51.4260 C   0  0  0  0  0
   17.4760   37.2240   49.9150 C   0  0  0  0  0
   17.6060   38.4910   52.3810 C   0  0  0  0  0
   16.4950   37.0260   50.8500 C   0  0  0  0  0
   16.5580   37.6470   52.0750 C   0  0  0  0  0
   20.6770   35.8650   50.7500 N   0  0  0  0  0
   20.5230   34.5070   51.2770 C   0  0  0  0  0
   19.0130   34.2040   51.3840 C   0  0  0  0  0
   18.3460   34.6060   52.3490 O   0  0  0  0  0
   21.0060   34.4810   52.7520 C   0  0  0  0  0
   22.5300   34.4940   52.7060 C   0  0  0  0  0
   23.1100   35.4850   53.1840 O   0  0  0  0  0
   23.0620   33.5170   52.1310 O   0  5  0  0  0
   18.5620   33.5270   50.3400 N   0  0  0  0  0
   17.1940   33.1490   50.1560 C   0  0  0  0  0
   16.7390   31.9970   51.0390 C   0  0  0  0  0
   17.3310   30.9160   51.0680 O   0  0  0  0  0
   16.9030   32.7220   48.6960 C   0  0  0  0  0
   17.0350   33.8660   47.7330 C   0  0  0  0  0
   15.9770   34.7580   47.5170 C   0  0  0  0  0
   18.2300   34.0940   47.0730 C   0  0  0  0  0
   16.1010   35.8180   46.6680 C   0  0  0  0  0
   18.3640   35.1770   46.2250 C   0  0  0  0  0
   17.3000   36.0280   46.0050 C   0  0  0  0  0
   15.6360   32.2320   51.7320 N   0  0  0  0  0
   15.0050   31.2030   52.5320 C   0  0  0  0  0
   14.0900   30.4340   51.5950 C   0  0  0  0  0
   14.2190   30.5940   50.3620 O   0  0  0  0  0
   14.2430   31.8510   53.6740 C   0  0  0  0  0
   15.0170   31.6430   54.9730 C   0  0  0  0  0
   15.6930   30.6110   55.0810 O   0  0  0  0  0
   14.9040   32.6060   55.8720 N   0  0  0  0  0
   13.1720   29.6070   52.0800 N   0  0  0  0  0
   12.3740   28.8710   51.0920 C   0  0  0  0  0
   10.9470   29.3340   51.1720 C   0  0  0  0  0
   10.5520   30.0140   52.1020 O   0  0  0  0  0
   12.4300   27.3630   51.4010 C   0  0  0  0  0
   11.9520   27.1150   52.7340 O   0  0  0  0  0
   13.8590   26.8490   51.3130 C   0  0  0  0  0
   10.1320   28.8830   50.2510 N   0  0  0  0  0
    8.7150   29.2240   50.2880 C   0  0  0  0  0
    7.9020   28.0610   50.9070 C   0  0  0  0  0
    6.6350   28.2370   50.9000 O   0  5  0  0  0
    8.2020   29.3430   48.8380 C   0  0  0  0  0
    8.4090   27.9650   48.1820 C   0  0  0  0  0
    8.8490   30.4480   48.0920 C   0  0  0  0  0
    7.8290   27.9670   46.8190 C   0  0  0  0  0
    8.5440   27.0430   51.3010 O   0  0  0  0  0
   25.7241   42.5296   45.9857 H   0  0  0  0  0
   26.7292   40.0136   45.5946 H   0  0  0  0  0
   27.0591   39.2008   47.9357 H   0  0  0  0  0
   26.8846   42.1738   48.6268 H   0  0  0  0  0
   25.6594   40.9360   49.0356 H   0  0  0  0  0
   29.2647   40.3055   48.2461 H   0  0  0  0  0
   28.9770   39.9657   46.5113 H   0  0  0  0  0
   28.7662   41.6311   47.1294 H   0  0  0  0  0
   27.1111   41.4383   50.9401 H   0  0  0  0  0
   27.0849   42.0901   45.1607 H   0  0  0  0  0
   27.3463   39.7459   50.4032 H   0  0  0  0  0
   28.5648   40.9834   49.9744 H   0  0  0  0  0
   25.2548   38.5335   45.8613 H   0  0  0  0  0
   22.5259   39.3332   45.8627 H   0  0  0  0  0
   23.8030   37.3785   44.6354 H   0  0  0  0  0
   23.4653   36.4639   46.1354 H   0  0  0  0  0
   22.3854   35.4413   43.8402 H   0  0  0  0  0
   20.6844   35.7614   43.7756 H   0  0  0  0  0
   20.9486   37.8553   47.0804 H   0  0  0  0  0
   21.5057   38.1840   50.0191 H   0  0  0  0  0
   19.6458   39.3760   49.0252 H   0  0  0  0  0
   19.0859   37.8946   48.1928 H   0  0  0  0  0
   19.4082   39.3741   51.6484 H   0  0  0  0  0
   17.4190   36.7239   48.9549 H   0  0  0  0  0
   17.6595   38.9799   53.3470 H   0  0  0  0  0
   15.6604   36.3730   50.6219 H   0  0  0  0  0
   15.7777   37.4721   52.8068 H   0  0  0  0  0
   20.6309   36.6095   51.4161 H   0  0  0  0  0
   21.0415   33.7667   50.6501 H   0  0  0  0  0
   20.6447   35.3681   53.2928 H   0  0  0  0  0
   20.6384   33.5795   53.2639 H   0  0  0  0  0
   19.2194   33.2626   49.6344 H   0  0  0  0  0
   16.5728   34.0218   50.4055 H   0  0  0  0  0
   17.6172   31.9397   48.3998 H   0  0  0  0  0
   15.8838   32.3127   48.6368 H   0  0  0  0  0
   15.0384   34.6023   48.0364 H   0  0  0  0  0
   19.0654   33.4194   47.2220 H   0  0  0  0  0
   15.2667   36.4924   46.5126 H   0  0  0  0  0
   19.3108   35.3592   45.7295 H   0  0  0  0  0
   17.4017   36.8583   45.3156 H   0  0  0  0  0
   15.2276   33.1443   51.7023 H   0  0  0  0  0
   15.7586   30.5131   52.9395 H   0  0  0  0  0
   14.1377   32.9302   53.4893 H   0  0  0  0  0
   13.2405   31.4057   53.7558 H   0  0  0  0  0
   14.3374   33.4069   55.6783 H   0  0  0  0  0
   15.3851   32.5334   56.7456 H   0  0  0  0  0
   13.0319   29.4918   53.0634 H   0  0  0  0  0
   12.7575   29.0630   50.0791 H   0  0  0  0  0
   11.7929   26.8194   50.6878 H   0  0  0  0  0
   11.0587   27.4288   52.8124 H   0  0  0  0  0
   14.5520   27.6927   51.4471 H   0  0  0  0  0
   14.0403   26.1073   52.1048 H   0  0  0  0  0
   14.0269   26.3728   50.3358 H   0  0  0  0  0
   10.4840   28.3011   49.5179 H   0  0  0  0  0
    8.5510   30.1508   50.8572 H   0  0  0  0  0
    7.1207   29.5438   48.8586 H   0  0  0  0  0
    9.4844   27.7456   48.1095 H   0  0  0  0  0
    7.9286   27.1866   48.7929 H   0  0  0  0  0
    8.4377   30.4807   47.0723 H   0  0  0  0  0
    8.6458   31.4069   48.5911 H   0  0  0  0  0
    9.9370   30.2902   48.0565 H   0  0  0  0  0
    7.9798   26.9768   46.3642 H   0  0  0  0  0
    6.7505   28.1769   46.8706 H   0  0  0  0  0
    8.3124   28.7425   46.2067 H   0  0  0  0  0
   27.1651   42.5109   46.7671 H   0  0  0  0  0
  2  1  1  0  0  0
  2  5  1  0  0  0
  3  2  1  0  0  0
  3  4  2  0  0  0
  5  7  1  0  0  0
  5  6  1  0  0  0
  6  8  1  0  0  0
 10  9  1  0  0  0
 10 13  1  0  0  0
 11 10  1  0  0  0
 11 12  2  0  0  0
 13 14  1  0  0  0
 14 16  1  0  0  0
 14 15  2  0  0  0
  9  3  1  0  0  0
 18 17  1  0  0  0
 18 21  1  0  0  0
 19 18  1  0  0  0
 19 20  2  0  0  0
 21 22  1  0  0  0
 22 23  4  0  0  0
 22 24  4  0  0  0
 24 26  4  0  0  0
 26 27  4  0  0  0
 25 27  4  0  0  0
 23 25  4  0  0  0
 17 11  1  0  0  0
 29 28  1  0  0  0
 29 32  1  0  0  0
 30 29  1  0  0  0
 30 31  2  0  0  0
 32 33  1  0  0  0
 33 34  2  0  0  0
 33 35  1  0  0  0
 28 19  1  0  0  0
 37 36  1  0  0  0
 37 40  1  0  0  0
 38 37  1  0  0  0
 38 39  2  0  0  0
 40 41  1  0  0  0
 41 42  4  0  0  0
 41 43  4  0  0  0
 43 45  4  0  0  0
 45 46  4  0  0  0
 44 46  4  0  0  0
 42 44  4  0  0  0
 36 30  1  0  0  0
 48 47  1  0  0  0
 48 51  1  0  0  0
 49 48  1  0  0  0
 49 50  2  0  0  0
 51 52  1  0  0  0
 52 54  1  0  0  0
 52 53  2  0  0  0
 47 38  1  0  0  0
 56 55  1  0  0  0
 56 59  1  0  0  0
 57 56  1  0  0  0
 57 58  2  0  0  0
 59 61  1  0  0  0
 59 60  1  0  0  0
 55 49  1  0  0  0
 62 63  1  0  0  0
 63 66  1  0  0  0
 63 64  1  0  0  0
 64 65  1  0  0  0
 64 70  2  0  0  0
 66 68  1  0  0  0
 66 67  1  0  0  0
 67 69  1  0  0  0
 57 62  1  0  0  0
  1 80  1  0  0  0
  1 71  1  0  0  0
  2 72  1  0  0  0
  5 73  1  0  0  0
  6 74  1  0  0  0
  6 75  1  0  0  0
  7 76  1  0  0  0
  7 77  1  0  0  0
  7 78  1  0  0  0
  8 79  1  0  0  0
  8 81  1  0  0  0
  8 82  1  0  0  0
  9 83  1  0  0  0
 10 84  1  0  0  0
 13 85  1  0  0  0
 13 86  1  0  0  0
 16 87  1  0  0  0
 16 88  1  0  0  0
 17 89  1  0  0  0
 18 90  1  0  0  0
 21 91  1  0  0  0
 21 92  1  0  0  0
 23 93  1  0  0  0
 24 94  1  0  0  0
 25 95  1  0  0  0
 26 96  1  0  0  0
 27 97  1  0  0  0
 28 98  1  0  0  0
 29 99  1  0  0  0
 32100  1  0  0  0
 32101  1  0  0  0
 36102  1  0  0  0
 37103  1  0  0  0
 40104  1  0  0  0
 40105  1  0  0  0
 42106  1  0  0  0
 43107  1  0  0  0
 44108  1  0  0  0
 45109  1  0  0  0
 46110  1  0  0  0
 47111  1  0  0  0
 48112  1  0  0  0
 51113  1  0  0  0
 51114  1  0  0  0
 54115  1  0  0  0
 54116  1  0  0  0
 55117  1  0  0  0
 56118  1  0  0  0
 59119  1  0  0  0
 60120  1  0  0  0
 61121  1  0  0  0
 61122  1  0  0  0
 61123  1  0  0  0
 62124  1  0  0  0
 63125  1  0  0  0
 66126  1  0  0  0
 67127  1  0  0  0
 67128  1  0  0  0
 68129  1  0  0  0
 68130  1  0  0  0
 68131  1  0  0  0
 69132  1  0  0  0
 69133  1  0  0  0
 69134  1  0  0  0
  1135  1  0  0  0
M  END
$$$$
