### 
### Created by X-TOOL on Tue Oct 25 02:36:08 2005
### 

@<TRIPOS>MOLECULE
1fo0_ligand
  135   136     1     0     0
SMALL
GAST_HUCK


@<TRIPOS>ATOM
      1 N          26.6090   42.0530   46.0620 N.4       1 SUB1        0.238
      2 CA         26.3900   40.6410   46.4320 C.3       1 SUB1        0.068
      3 C          24.9150   40.3210   46.6720 C.2       1 SUB1        0.227
      4 O          24.1470   41.1170   47.1870 O.2       1 SUB1       -0.391
      5 CB         27.1940   40.2640   47.6880 C.3       1 SUB1        0.016
      6 CG1        26.7320   41.1110   48.8660 C.3       1 SUB1       -0.046
      7 CG2        28.6480   40.5650   47.3730 C.3       1 SUB1       -0.055
      8 CD1        27.4910   40.8010   50.1280 C.3       1 SUB1       -0.065
      9 N          24.5470   39.1220   46.2520 N.am      1 SUB1       -0.259
     10 CA         23.2090   38.5980   46.3130 C.3       1 SUB1        0.148
     11 C          22.7560   38.3920   47.7400 C.2       1 SUB1        0.206
     12 O          23.4640   38.5930   48.7080 O.2       1 SUB1       -0.394
     13 CB         23.1280   37.2960   45.5000 C.3       1 SUB1        0.077
     14 CG         21.7500   36.9800   44.9770 C.2       1 SUB1        0.178
     15 OD1        20.7520   37.6250   45.3150 O.2       1 SUB1       -0.397
     16 ND2        21.5940   35.9800   44.1290 N.am      1 SUB1       -0.301
     17 N          21.5160   37.9820   47.8940 N.am      1 SUB1       -0.262
     18 CA         20.9270   37.7010   49.2180 C.3       1 SUB1        0.140
     19 C          20.8690   36.2110   49.4980 C.2       1 SUB1        0.206
     20 O          21.0020   35.3470   48.6110 O.2       1 SUB1       -0.394
     21 CB         19.5320   38.2860   49.1190 C.3       1 SUB1        0.021
     22 CG         18.5490   38.0700   50.1990 C.ar      1 SUB1       -0.039
     23 CD1        18.5890   38.7000   51.4260 C.ar      1 SUB1       -0.060
     24 CD2        17.4760   37.2240   49.9150 C.ar      1 SUB1       -0.060
     25 CE1        17.6060   38.4910   52.3810 C.ar      1 SUB1       -0.069
     26 CE2        16.4950   37.0260   50.8500 C.ar      1 SUB1       -0.069
     27 CZ         16.5580   37.6470   52.0750 C.ar      1 SUB1       -0.069
     28 N          20.6770   35.8650   50.7500 N.am      1 SUB1       -0.261
     29 CA         20.5230   34.5070   51.2770 C.3       1 SUB1        0.142
     30 C          19.0130   34.2040   51.3840 C.2       1 SUB1        0.207
     31 O          18.3460   34.6060   52.3490 O.2       1 SUB1       -0.394
     32 CB         21.0060   34.4810   52.7520 C.3       1 SUB1        0.027
     33 CG         22.5300   34.4940   52.7060 C.2       1 SUB1        0.032
     34 OD1        23.1100   35.4850   53.1840 O.co2     1 SUB1       -0.566
     35 OD2        23.0620   33.5170   52.1310 O.co2     1 SUB1       -0.566
     36 N          18.5620   33.5270   50.3400 N.am      1 SUB1       -0.262
     37 CA         17.1940   33.1490   50.1560 C.3       1 SUB1        0.140
     38 C          16.7390   31.9970   51.0390 C.2       1 SUB1        0.206
     39 O          17.3310   30.9160   51.0680 O.2       1 SUB1       -0.394
     40 CB         16.9030   32.7220   48.6960 C.3       1 SUB1        0.021
     41 CG         17.0350   33.8660   47.7330 C.ar      1 SUB1       -0.039
     42 CD1        15.9770   34.7580   47.5170 C.ar      1 SUB1       -0.060
     43 CD2        18.2300   34.0940   47.0730 C.ar      1 SUB1       -0.060
     44 CE1        16.1010   35.8180   46.6680 C.ar      1 SUB1       -0.069
     45 CE2        18.3640   35.1770   46.2250 C.ar      1 SUB1       -0.069
     46 CZ         17.3000   36.0280   46.0050 C.ar      1 SUB1       -0.069
     47 N          15.6360   32.2320   51.7320 N.am      1 SUB1       -0.262
     48 CA         15.0050   31.2030   52.5320 C.3       1 SUB1        0.148
     49 C          14.0900   30.4340   51.5950 C.2       1 SUB1        0.206
     50 O          14.2190   30.5940   50.3620 O.2       1 SUB1       -0.394
     51 CB         14.2430   31.8510   53.6740 C.3       1 SUB1        0.077
     52 CG         15.0170   31.6430   54.9730 C.2       1 SUB1        0.178
     53 OD1        15.6930   30.6110   55.0810 O.2       1 SUB1       -0.397
     54 ND2        14.9040   32.6060   55.8720 N.am      1 SUB1       -0.301
     55 N          13.1720   29.6070   52.0800 N.am      1 SUB1       -0.261
     56 CA         12.3740   28.8710   51.0920 C.3       1 SUB1        0.157
     57 C          10.9470   29.3340   51.1720 C.2       1 SUB1        0.207
     58 O          10.5520   30.0140   52.1020 O.2       1 SUB1       -0.394
     59 CB         12.4300   27.3630   51.4010 C.3       1 SUB1        0.092
     60 OG1        11.9520   27.1150   52.7340 O.3       1 SUB1       -0.387
     61 CG2        13.8590   26.8490   51.3130 C.3       1 SUB1       -0.035
     62 N          10.1320   28.8830   50.2510 N.am      1 SUB1       -0.268
     63 CA          8.7150   29.2240   50.2880 C.3       1 SUB1        0.084
     64 C           7.9020   28.0610   50.9070 C.2       1 SUB1        0.053
     65 O           6.6350   28.2370   50.9000 O.co2     1 SUB1       -0.564
     66 CB          8.2020   29.3430   48.8380 C.3       1 SUB1       -0.010
     67 CG1         8.4090   27.9650   48.1820 C.3       1 SUB1       -0.048
     68 CG2         8.8490   30.4480   48.0920 C.3       1 SUB1       -0.058
     69 CD1         7.8290   27.9670   46.8190 C.3       1 SUB1       -0.065
     70 OXT         8.5440   27.0430   51.3010 O.co2     1 SUB1       -0.564
     71 H11        25.7241   42.5296   45.9857 H         1 SUB1        0.201
     72 H21        26.7292   40.0136   45.5946 H         1 SUB1        0.110
     73 H51        27.0591   39.2008   47.9357 H         1 SUB1        0.038
     74 H61        26.8846   42.1738   48.6268 H         1 SUB1        0.027
     75 H62        25.6594   40.9360   49.0356 H         1 SUB1        0.027
     76 H71        29.2647   40.3055   48.2461 H         1 SUB1        0.024
     77 H72        28.9770   39.9657   46.5113 H         1 SUB1        0.024
     78 H73        28.7662   41.6311   47.1294 H         1 SUB1        0.024
     79 H81        27.1111   41.4383   50.9401 H         1 SUB1        0.023
     80 H12        27.0849   42.0901   45.1607 H         1 SUB1        0.201
     81 H82        27.3463   39.7459   50.4032 H         1 SUB1        0.023
     82 H83        28.5648   40.9834   49.9744 H         1 SUB1        0.023
     83 H91        25.2548   38.5335   45.8613 H         1 SUB1        0.189
     84 H101       22.5259   39.3332   45.8627 H         1 SUB1        0.083
     85 H131       23.8030   37.3785   44.6354 H         1 SUB1        0.055
     86 H132       23.4653   36.4639   46.1354 H         1 SUB1        0.055
     87 H161       22.3854   35.4413   43.8402 H         1 SUB1        0.181
     88 H162       20.6844   35.7614   43.7756 H         1 SUB1        0.181
     89 H171       20.9486   37.8553   47.0804 H         1 SUB1        0.189
     90 H181       21.5057   38.1840   50.0191 H         1 SUB1        0.082
     91 H211       19.6458   39.3760   49.0252 H         1 SUB1        0.047
     92 H212       19.0859   37.8946   48.1928 H         1 SUB1        0.047
     93 H231       19.4082   39.3741   51.6484 H         1 SUB1        0.056
     94 H241       17.4190   36.7239   48.9549 H         1 SUB1        0.056
     95 H251       17.6595   38.9799   53.3470 H         1 SUB1        0.060
     96 H261       15.6604   36.3730   50.6219 H         1 SUB1        0.060
     97 H271       15.7777   37.4721   52.8068 H         1 SUB1        0.056
     98 H281       20.6309   36.6095   51.4161 H         1 SUB1        0.189
     99 H291       21.0415   33.7667   50.6501 H         1 SUB1        0.084
    100 H321       20.6447   35.3681   53.2928 H         1 SUB1        0.053
    101 H322       20.6384   33.5795   53.2639 H         1 SUB1        0.053
    102 H361       19.2194   33.2626   49.6344 H         1 SUB1        0.189
    103 H371       16.5728   34.0218   50.4055 H         1 SUB1        0.082
    104 H401       17.6172   31.9397   48.3998 H         1 SUB1        0.047
    105 H402       15.8838   32.3127   48.6368 H         1 SUB1        0.047
    106 H421       15.0384   34.6023   48.0364 H         1 SUB1        0.056
    107 H431       19.0654   33.4194   47.2220 H         1 SUB1        0.056
    108 H441       15.2667   36.4924   46.5126 H         1 SUB1        0.060
    109 H451       19.3108   35.3592   45.7295 H         1 SUB1        0.060
    110 H461       17.4017   36.8583   45.3156 H         1 SUB1        0.056
    111 H471       15.2276   33.1443   51.7023 H         1 SUB1        0.189
    112 H481       15.7586   30.5131   52.9395 H         1 SUB1        0.083
    113 H511       14.1377   32.9302   53.4893 H         1 SUB1        0.055
    114 H512       13.2405   31.4057   53.7558 H         1 SUB1        0.055
    115 H541       14.3374   33.4069   55.6783 H         1 SUB1        0.181
    116 H542       15.3851   32.5334   56.7456 H         1 SUB1        0.181
    117 H551       13.0319   29.4918   53.0634 H         1 SUB1        0.188
    118 H561       12.7575   29.0630   50.0791 H         1 SUB1        0.083
    119 H591       11.7929   26.8194   50.6878 H         1 SUB1        0.064
    120 H601       11.0587   27.4288   52.8124 H         1 SUB1        0.210
    121 H611       14.5520   27.6927   51.4471 H         1 SUB1        0.026
    122 H612       14.0403   26.1073   52.1048 H         1 SUB1        0.026
    123 H613       14.0269   26.3728   50.3358 H         1 SUB1        0.026
    124 H621       10.4840   28.3011   49.5179 H         1 SUB1        0.190
    125 H631        8.5510   30.1508   50.8572 H         1 SUB1        0.078
    126 H661        7.1207   29.5438   48.8586 H         1 SUB1        0.036
    127 H671        9.4844   27.7456   48.1095 H         1 SUB1        0.027
    128 H672        7.9286   27.1866   48.7929 H         1 SUB1        0.027
    129 H681        8.4377   30.4807   47.0723 H         1 SUB1        0.024
    130 H682        8.6458   31.4069   48.5911 H         1 SUB1        0.024
    131 H683        9.9370   30.2902   48.0565 H         1 SUB1        0.024
    132 H691        7.9798   26.9768   46.3642 H         1 SUB1        0.023
    133 H692        6.7505   28.1769   46.8706 H         1 SUB1        0.023
    134 H693        8.3124   28.7425   46.2067 H         1 SUB1        0.023
    135 H13        27.1651   42.5109   46.7671 H         1 SUB1        0.201
@<TRIPOS>BOND
     1    2    1 1  
     2    2    5 1  
     3    3    2 1  
     4    3    4 2  
     5    5    7 1  
     6    5    6 1  
     7    6    8 1  
     8   10    9 1  
     9   10   13 1  
    10   11   10 1  
    11   11   12 2  
    12   13   14 1  
    13   14   16 am 
    14   14   15 2  
    15    9    3 am 
    16   18   17 1  
    17   18   21 1  
    18   19   18 1  
    19   19   20 2  
    20   21   22 1  
    21   22   23 ar 
    22   22   24 ar 
    23   24   26 ar 
    24   26   27 ar 
    25   25   27 ar 
    26   23   25 ar 
    27   17   11 am 
    28   29   28 1  
    29   29   32 1  
    30   30   29 1  
    31   30   31 2  
    32   32   33 1  
    33   33   34 2  
    34   33   35 2  
    35   28   19 am 
    36   37   36 1  
    37   37   40 1  
    38   38   37 1  
    39   38   39 2  
    40   40   41 1  
    41   41   42 ar 
    42   41   43 ar 
    43   43   45 ar 
    44   45   46 ar 
    45   44   46 ar 
    46   42   44 ar 
    47   36   30 am 
    48   48   47 1  
    49   48   51 1  
    50   49   48 1  
    51   49   50 2  
    52   51   52 1  
    53   52   54 am 
    54   52   53 2  
    55   47   38 am 
    56   56   55 1  
    57   56   59 1  
    58   57   56 1  
    59   57   58 2  
    60   59   61 1  
    61   59   60 1  
    62   55   49 am 
    63   62   63 1  
    64   63   66 1  
    65   63   64 1  
    66   64   65 2  
    67   64   70 2  
    68   66   68 1  
    69   66   67 1  
    70   67   69 1  
    71   57   62 am 
    72    1   80 1  
    73    1   71 1  
    74    2   72 1  
    75    5   73 1  
    76    6   74 1  
    77    6   75 1  
    78    7   76 1  
    79    7   77 1  
    80    7   78 1  
    81    8   79 1  
    82    8   81 1  
    83    8   82 1  
    84    9   83 1  
    85   10   84 1  
    86   13   85 1  
    87   13   86 1  
    88   16   87 1  
    89   16   88 1  
    90   17   89 1  
    91   18   90 1  
    92   21   91 1  
    93   21   92 1  
    94   23   93 1  
    95   24   94 1  
    96   25   95 1  
    97   26   96 1  
    98   27   97 1  
    99   28   98 1  
   100   29   99 1  
   101   32  100 1  
   102   32  101 1  
   103   36  102 1  
   104   37  103 1  
   105   40  104 1  
   106   40  105 1  
   107   42  106 1  
   108   43  107 1  
   109   44  108 1  
   110   45  109 1  
   111   46  110 1  
   112   47  111 1  
   113   48  112 1  
   114   51  113 1  
   115   51  114 1  
   116   54  115 1  
   117   54  116 1  
   118   55  117 1  
   119   56  118 1  
   120   59  119 1  
   121   60  120 1  
   122   61  121 1  
   123   61  122 1  
   124   61  123 1  
   125   62  124 1  
   126   63  125 1  
   127   66  126 1  
   128   67  127 1  
   129   67  128 1  
   130   68  129 1  
   131   68  130 1  
   132   68  131 1  
   133   69  132 1  
   134   69  133 1  
   135   69  134 1  
   136    1  135 1  
@<TRIPOS>SUBSTRUCTURE
     1 SUB1        1 GROUP

