### 
### Created by X-TOOL on Sun Jun  3 12:37:57 2007
### 

@<TRIPOS>MOLECULE
2gyi_ligand
   19    18     1     0     0
SMALL
GAST_HUCK


@<TRIPOS>ATOM
      1 C1         15.8850    5.7280  -12.2640 C.2       1 SUB1        0.230
      2 C2         17.0010    6.3900  -11.4310 C.3       1 SUB1        0.173
      3 C3         16.7440    6.1030   -9.9320 C.3       1 SUB1        0.121
      4 C4         17.9580    6.0650   -8.9580 C.3       1 SUB1        0.075
      5 N          15.8850    4.5690  -12.8860 N.am      1 SUB1       -0.162
      6 O1         14.7680    6.4130  -12.1500 O.2       1 SUB1       -0.394
      7 O2         18.2780    6.4390  -11.9720 O.3       1 SUB1       -0.369
      8 O3         16.0870    7.2920   -9.6000 O.3       1 SUB1       -0.384
      9 O4         18.6860    4.9010   -9.0880 O.3       1 SUB1       -0.392
     10 O          14.7940    4.2980  -13.6690 O.3       1 SUB1       -0.272
     11 H          16.9440    7.4761  -11.5031 H         1 SUB1        0.086
     12 H          16.2819    5.1212   -9.8296 H         1 SUB1        0.067
     13 H          17.5789    6.1186   -7.9374 H         1 SUB1        0.058
     14 H          18.6116    6.9048   -9.1939 H         1 SUB1        0.058
     15 H          16.6557    3.9077  -12.7905 H         1 SUB1        0.222
     16 H          18.2194    6.6289  -12.9112 H         1 SUB1        0.213
     17 H          15.3146    7.3967  -10.1604 H         1 SUB1        0.210
     18 H          19.4231    4.9155   -8.4731 H         1 SUB1        0.209
     19 H          14.0021    4.3062  -13.1264 H         1 SUB1        0.249
@<TRIPOS>BOND
     1    1    2 1  
     2    1    5 am 
     3    1    6 2  
     4    2    3 1  
     5    2    7 1  
     6    3    4 1  
     7    3    8 1  
     8    4    9 1  
     9    5   10 1  
    10    2   11 1  
    11    3   12 1  
    12    4   13 1  
    13    4   14 1  
    14    5   15 1  
    15    7   16 1  
    16    8   17 1  
    17    9   18 1  
    18   10   19 1  
@<TRIPOS>SUBSTRUCTURE
     1 SUB1        1 GROUP

