2gyi_ligand
  -I-interpret- 

 19 18  0  0  0  0  0  0  0  0999 V2000
   15.8850    5.7280  -12.2640 C   0  0  0  0  0
   17.0010    6.3900  -11.4310 C   0  0  0  0  0
   16.7440    6.1030   -9.9320 C   0  0  0  0  0
   17.9580    6.0650   -8.9580 C   0  0  0  0  0
   15.8850    4.5690  -12.8860 N   0  0  0  0  0
   14.7680    6.4130  -12.1500 O   0  0  0  0  0
   18.2780    6.4390  -11.9720 O   0  0  0  0  0
   16.0870    7.2920   -9.6000 O   0  0  0  0  0
   18.6860    4.9010   -9.0880 O   0  0  0  0  0
   14.7940    4.2980  -13.6690 O   0  0  0  0  0
   16.9440    7.4761  -11.5031 H   0  0  0  0  0
   16.2819    5.1212   -9.8296 H   0  0  0  0  0
   17.5789    6.1186   -7.9374 H   0  0  0  0  0
   18.6116    6.9048   -9.1939 H   0  0  0  0  0
   16.6557    3.9077  -12.7905 H   0  0  0  0  0
   18.2194    6.6289  -12.9112 H   0  0  0  0  0
   15.3146    7.3967  -10.1604 H   0  0  0  0  0
   19.4231    4.9155   -8.4731 H   0  0  0  0  0
   14.0021    4.3062  -13.1264 H   0  0  0  0  0
  1  2  1  0  0  0
  1  5  1  0  0  0
  1  6  2  0  0  0
  2  3  1  0  0  0
  2  7  1  0  0  0
  3  4  1  0  0  0
  3  8  1  0  0  0
  4  9  1  0  0  0
  5 10  1  0  0  0
  2 11  1  0  0  0
  3 12  1  0  0  0
  4 13  1  0  0  0
  4 14  1  0  0  0
  5 15  1  0  0  0
  7 16  1  0  0  0
  8 17  1  0  0  0
  9 18  1  0  0  0
 10 19  1  0  0  0
M  END
$$$$
