1zc9_ligand
  -I-interpret- 

 28 28  0  0  0  0  0  0  0  0999 V2000
   17.1240   52.9180   13.7800 N   0  0  0  0  0
   16.0010   53.1890   14.5470 C   0  0  0  0  0
   14.9270   54.1310   13.9730 C   0  0  0  0  0
   15.9560   52.5580   15.8330 C   0  0  0  0  0
   14.8710   52.8170   16.5890 O   0  0  0  0  0
   16.9930   51.7190   16.2850 C   0  0  0  0  0
   16.8920   51.1130   17.6130 C   0  0  0  0  0
   15.9010   50.2490   17.7330 N   0  3  0  0  0
   18.1100   51.5050   15.3980 C   0  0  0  0  0
   18.1770   52.0930   14.1570 C   0  0  0  0  0
   19.3130   50.5770   15.7990 C   0  0  0  0  0
   19.0220   49.2060   15.6340 O   0  0  0  0  0
   19.9460   48.1540   16.4000 P   0  0  0  0  0
   19.3970   46.8460   16.0150 O   0  5  0  0  0
   21.3840   48.2490   15.9300 O   0  5  0  0  0
   19.8240   48.4070   17.8060 O   0  0  0  0  0
   15.3702   55.1068   13.7740 H   0  0  0  0  0
   14.5362   53.7121   13.0457 H   0  0  0  0  0
   14.1169   54.2387   14.6943 H   0  0  0  0  0
   14.9439   52.3471   17.4230 H   0  0  0  0  0
   16.7074   51.9186   18.3237 H   0  0  0  0  0
   17.8195   50.5693   17.7925 H   0  0  0  0  0
   15.8943   49.8706   18.6802 H   0  0  0  0  0
   15.0159   50.7208   17.5478 H   0  0  0  0  0
   16.0299   49.4904   17.0634 H   0  0  0  0  0
   19.0242   51.9187   13.4937 H   0  0  0  0  0
   19.5308   50.7483   16.8532 H   0  0  0  0  0
   20.1544   50.8209   15.1504 H   0  0  0  0  0
  1  2  4  0  0  0
  1 10  4  0  0  0
  2  3  1  0  0  0
  2  4  4  0  0  0
  4  5  1  0  0  0
  4  6  4  0  0  0
  6  7  1  0  0  0
  6  9  4  0  0  0
  7  8  1  0  0  0
  9 10  4  0  0  0
  9 11  1  0  0  0
 11 12  1  0  0  0
 12 13  1  0  0  0
 13 14  1  0  0  0
 13 15  1  0  0  0
 13 16  2  0  0  0
  3 17  1  0  0  0
  3 18  1  0  0  0
  3 19  1  0  0  0
  5 20  1  0  0  0
  7 21  1  0  0  0
  7 22  1  0  0  0
  8 23  1  0  0  0
  8 24  1  0  0  0
  8 25  1  0  0  0
 10 26  1  0  0  0
 11 27  1  0  0  0
 11 28  1  0  0  0
M  END
$$$$
