### 
### Created by X-TOOL on Sun Jun  3 11:14:02 2007
### 

@<TRIPOS>MOLECULE
1zc9_ligand
   28    28     1     0     0
SMALL
GAST_HUCK


@<TRIPOS>ATOM
      1 N1         17.1240   52.9180   13.7800 N.ar      1 SUB1       -0.326
      2 C2         16.0010   53.1890   14.5470 C.ar      1 SUB1        0.039
      3 C2A        14.9270   54.1310   13.9730 C.3       1 SUB1       -0.022
      4 C3         15.9560   52.5580   15.8330 C.ar      1 SUB1        0.117
      5 O3         14.8710   52.8170   16.5890 O.3       1 SUB1       -0.335
      6 C4         16.9930   51.7190   16.2850 C.ar      1 SUB1        0.047
      7 C4A        16.8920   51.1130   17.6130 C.3       1 SUB1       -0.000
      8 N4A        15.9010   50.2490   17.7330 N.4       1 SUB1        0.230
      9 C5         18.1100   51.5050   15.3980 C.ar      1 SUB1        0.006
     10 C6         18.1770   52.0930   14.1570 C.ar      1 SUB1       -0.013
     11 C5A        19.3130   50.5770   15.7990 C.3       1 SUB1        0.117
     12 O4P        19.0220   49.2060   15.6340 O.3       1 SUB1       -0.205
     13 P          19.9460   48.1540   16.4000 P.3       1 SUB1        0.617
     14 O1P        19.3970   46.8460   16.0150 O.2       1 SUB1       -0.214
     15 O2P        21.3840   48.2490   15.9300 O.2       1 SUB1       -0.214
     16 O3P        19.8240   48.4070   17.8060 O.2       1 SUB1       -0.214
     17 H          15.3702   55.1068   13.7740 H         1 SUB1        0.038
     18 H          14.5362   53.7121   13.0457 H         1 SUB1        0.038
     19 H          14.1169   54.2387   14.6943 H         1 SUB1        0.038
     20 H          14.9439   52.3471   17.4230 H         1 SUB1        0.245
     21 H          16.7074   51.9186   18.3237 H         1 SUB1        0.096
     22 H          17.8195   50.5693   17.7925 H         1 SUB1        0.096
     23 H          15.8943   49.8706   18.6802 H         1 SUB1        0.201
     24 H          15.0159   50.7208   17.5478 H         1 SUB1        0.201
     25 H          16.0299   49.4904   17.0634 H         1 SUB1        0.201
     26 H          19.0242   51.9187   13.4937 H         1 SUB1        0.062
     27 H          19.5308   50.7483   16.8532 H         1 SUB1        0.076
     28 H          20.1544   50.8209   15.1504 H         1 SUB1        0.076
@<TRIPOS>BOND
     1    1    2 ar 
     2    1   10 ar 
     3    2    3 1  
     4    2    4 ar 
     5    4    5 1  
     6    4    6 ar 
     7    6    7 1  
     8    6    9 ar 
     9    7    8 1  
    10    9   10 ar 
    11    9   11 1  
    12   11   12 1  
    13   12   13 1  
    14   13   14 2  
    15   13   15 2  
    16   13   16 2  
    17    3   17 1  
    18    3   18 1  
    19    3   19 1  
    20    5   20 1  
    21    7   21 1  
    22    7   22 1  
    23    8   23 1  
    24    8   24 1  
    25    8   25 1  
    26   10   26 1  
    27   11   27 1  
    28   11   28 1  
@<TRIPOS>SUBSTRUCTURE
     1 SUB1        1 GROUP

