### 
### Created by X-TOOL on Tue Oct 25 00:57:14 2005
### 

@<TRIPOS>MOLECULE
1d09_ligand
   22    21     1     0     0
SMALL
GAST_HUCK


@<TRIPOS>ATOM
      1 H71        44.1890   28.0320   15.8868 H         1 SUB1        0.057
      2 H72        44.3327   28.9616   14.3565 H         1 SUB1        0.057
      3 P          46.0070   29.5840   15.9460 P.3       1 SUB1        0.081
      4 O1P        45.9660   30.5120   17.1780 O.co2     1 SUB1       -0.541
      5 O2P        47.0690   28.5590   15.9510 O.co2     1 SUB1       -0.541
      6 O3P        46.3960   30.6030   14.7470 O.co2     1 SUB1       -0.541
      7 C1P        44.3640   29.0280   15.4540 C.3       1 SUB1        0.083
      8 C1         43.2480   29.9560   15.9130 C.2       1 SUB1        0.186
      9 O1         43.0070   31.0150   15.2890 O.2       1 SUB1       -0.396
     10 N2         42.6070   29.5920   17.0360 N.am      1 SUB1       -0.267
     11 C2         41.5030   30.3420   17.6060 C.3       1 SUB1        0.092
     12 C4         41.8220   31.6970   18.1950 C.2       1 SUB1        0.056
     13 O2         40.8690   32.4270   18.6500 O.co2     1 SUB1       -0.564
     14 O3         43.0400   31.9800   18.2310 O.co2     1 SUB1       -0.564
     15 C3         40.7170   29.4480   18.6010 C.3       1 SUB1        0.021
     16 C5         41.4990   29.1320   19.8640 C.2       1 SUB1        0.033
     17 O4         42.5700   29.7540   20.0760 O.co2     1 SUB1       -0.566
     18 O5         40.9980   28.2940   20.6580 O.co2     1 SUB1       -0.566
     19 H101       42.9063   28.7604   17.5039 H         1 SUB1        0.190
     20 H111       40.8231   30.5478   16.7662 H         1 SUB1        0.081
     21 H151       40.4661   28.5021   18.0988 H         1 SUB1        0.054
     22 H152       39.7909   29.9697   18.8841 H         1 SUB1        0.054
@<TRIPOS>BOND
     1    3    7 1  
     2    3    6 2  
     3    3    5 2  
     4    3    4 2  
     5    7    8 1  
     6    8   10 am 
     7    8    9 2  
     8   10   11 1  
     9   11   15 1  
    10   11   12 1  
    11   12   14 2  
    12   12   13 2  
    13   15   16 1  
    14   16   18 2  
    15   16   17 2  
    16    7    1 1  
    17    7    2 1  
    18   10   19 1  
    19   11   20 1  
    20   15   21 1  
    21   15   22 1  
@<TRIPOS>SUBSTRUCTURE
     1 SUB1        1 GROUP

