1d09_ligand
  -I-interpret- 

 22 21  0  0  0  0  0  0  0  0999 V2000
   44.1890   28.0320   15.8868 H   0  0  0  0  0
   44.3327   28.9616   14.3565 H   0  0  0  0  0
   46.0070   29.5840   15.9460 P   0  0  0  0  0
   45.9660   30.5120   17.1780 O   0  5  0  0  0
   47.0690   28.5590   15.9510 O   0  0  0  0  0
   46.3960   30.6030   14.7470 O   0  5  0  0  0
   44.3640   29.0280   15.4540 C   0  0  0  0  0
   43.2480   29.9560   15.9130 C   0  0  0  0  0
   43.0070   31.0150   15.2890 O   0  0  0  0  0
   42.6070   29.5920   17.0360 N   0  0  0  0  0
   41.5030   30.3420   17.6060 C   0  0  0  0  0
   41.8220   31.6970   18.1950 C   0  0  0  0  0
   40.8690   32.4270   18.6500 O   0  5  0  0  0
   43.0400   31.9800   18.2310 O   0  0  0  0  0
   40.7170   29.4480   18.6010 C   0  0  0  0  0
   41.4990   29.1320   19.8640 C   0  0  0  0  0
   42.5700   29.7540   20.0760 O   0  0  0  0  0
   40.9980   28.2940   20.6580 O   0  5  0  0  0
   42.9063   28.7604   17.5039 H   0  0  0  0  0
   40.8231   30.5478   16.7662 H   0  0  0  0  0
   40.4661   28.5021   18.0988 H   0  0  0  0  0
   39.7909   29.9697   18.8841 H   0  0  0  0  0
  3  7  1  0  0  0
  3  6  1  0  0  0
  3  5  2  0  0  0
  3  4  1  0  0  0
  7  8  1  0  0  0
  8 10  1  0  0  0
  8  9  2  0  0  0
 10 11  1  0  0  0
 11 15  1  0  0  0
 11 12  1  0  0  0
 12 14  2  0  0  0
 12 13  1  0  0  0
 15 16  1  0  0  0
 16 18  1  0  0  0
 16 17  2  0  0  0
  7  1  1  0  0  0
  7  2  1  0  0  0
 10 19  1  0  0  0
 11 20  1  0  0  0
 15 21  1  0  0  0
 15 22  1  0  0  0
M  END
$$$$
