### 
### Created by X-TOOL on Tue Oct 25 01:47:19 2005
### 

@<TRIPOS>MOLECULE
1sld_ligand
   97   100     1     0     0
SMALL
GAST_HUCK


@<TRIPOS>ATOM
      1 C           8.1590   -0.0420  -19.8590 C.2       1 SUB1        0.175
      2 O           7.8100    0.4600  -18.7900 O.2       1 SUB1       -0.397
      3 CH3A        7.2350    0.0310  -21.0660 C.3       1 SUB1        0.026
      4 H31         7.7116   -0.4670  -21.9232 H         1 SUB1        0.047
      5 N           9.3130   -0.7040  -19.9710 N.am      1 SUB1       -0.265
      6 CA         10.1070   -0.9770  -18.7920 C.3       1 SUB1        0.141
      7 C          10.8520    0.2700  -18.3020 C.2       1 SUB1        0.205
      8 O          11.5850    0.9850  -19.0130 O.2       1 SUB1       -0.394
      9 CB         11.0730   -2.1000  -19.0960 C.3       1 SUB1        0.044
     10 SG         12.0640   -2.4580  -17.6320 S.3       1 SUB1       -0.088
     11 N          10.4880    0.5110  -17.0350 N.am      1 SUB1       -0.262
     12 CA         10.7190    1.7700  -16.3450 C.3       1 SUB1        0.142
     13 C          12.1510    1.9000  -15.9020 C.2       1 SUB1        0.208
     14 O          12.6740    0.8560  -15.4930 O.2       1 SUB1       -0.394
     15 CB          9.7460    1.7980  -15.1660 C.3       1 SUB1        0.043
     16 CG          9.7600    3.0700  -14.3340 C.2       1 SUB1        0.056
     17 ND1        10.6880    3.2400  -13.3950 N.pl3     1 SUB1       -0.262
     18 CD2         8.9030    4.1200  -14.4910 C.2       1 SUB1       -0.028
     19 CE1        10.3890    4.4480  -12.9460 C.2       1 SUB1        0.087
     20 NE2         9.3480    4.9640  -13.5910 N.2       1 SUB1       -0.344
     21 N          12.7760    3.0910  -15.8250 N.am      1 SUB1       -0.250
     22 CA         14.1370    3.2220  -15.3610 C.3       1 SUB1        0.134
     23 C          14.4390    2.7090  -13.9480 C.2       1 SUB1        0.204
     24 O          15.5950    2.4310  -13.6120 O.2       1 SUB1       -0.394
     25 CB         14.4100    4.7100  -15.5830 C.3       1 SUB1       -0.010
     26 CG         13.1200    5.4340  -15.7510 C.3       1 SUB1       -0.028
     27 CD         12.2850    4.3550  -16.3940 C.3       1 SUB1        0.037
     28 N          13.4400    2.5530  -13.0580 N.am      1 SUB1       -0.264
     29 CA         13.6740    1.9140  -11.7580 C.3       1 SUB1        0.133
     30 C          14.0970    0.4530  -11.9150 C.2       1 SUB1        0.204
     31 O          14.7670   -0.1200  -11.0460 O.2       1 SUB1       -0.394
     32 CB         12.4070    1.9790  -10.9160 C.3       1 SUB1        0.004
     33 CG         12.6090    1.6190   -9.4400 C.3       1 SUB1        0.041
     34 CD         11.3400    1.6990   -8.6100 C.2       1 SUB1        0.174
     35 OE1        10.5330    2.5870   -8.8400 O.2       1 SUB1       -0.397
     36 NE2        10.9990    0.8540   -7.6540 N.am      1 SUB1       -0.301
     37 N          13.6980   -0.1040  -13.0590 N.am      1 SUB1       -0.262
     38 CA         13.8550   -1.4970  -13.3700 C.3       1 SUB1        0.140
     39 C          14.9460   -1.6830  -14.4570 C.2       1 SUB1        0.206
     40 O          15.8460   -2.5240  -14.2760 O.2       1 SUB1       -0.394
     41 CB         12.3900   -2.0190  -13.7410 C.3       1 SUB1        0.021
     42 CG         11.4310   -1.7700  -12.5690 C.ar      1 SUB1       -0.039
     43 CD1        11.6030   -2.4610  -11.3620 C.ar      1 SUB1       -0.060
     44 CD2        10.4290   -0.7780  -12.6330 C.ar      1 SUB1       -0.060
     45 CE1        10.7850   -2.1500  -10.2470 C.ar      1 SUB1       -0.069
     46 CE2         9.6240   -0.4850  -11.5060 C.ar      1 SUB1       -0.069
     47 CZ          9.7980   -1.1670  -10.3040 C.ar      1 SUB1       -0.069
     48 N          15.0010   -0.9050  -15.5410 N.am      1 SUB1       -0.263
     49 CA         15.9540   -1.1400  -16.6100 C.3       1 SUB1        0.140
     50 C          16.4820    0.1780  -17.1740 C.2       1 SUB1        0.200
     51 O          15.7870    0.9430  -17.8450 O.2       1 SUB1       -0.395
     52 CB         15.2370   -1.9560  -17.6860 C.3       1 SUB1        0.044
     53 SG         13.6200   -1.2340  -18.1550 S.3       1 SUB1       -0.088
     54 N          17.7400    0.4980  -16.9180 N.am      1 SUB1       -0.299
     55 H32         7.0405    1.0845  -21.3157 H         1 SUB1        0.047
     56 H33         6.2851   -0.4717  -20.8316 H         1 SUB1        0.047
     57 H51         9.6286   -1.0110  -20.8689 H         1 SUB1        0.188
     58 H61         9.4312   -1.3056  -17.9887 H         1 SUB1        0.081
     59 H91        11.7349   -1.8002  -19.9218 H         1 SUB1        0.043
     60 H92        10.5096   -2.9993  -19.3856 H         1 SUB1        0.043
     61 H111       10.0285   -0.2212  -16.5323 H         1 SUB1        0.189
     62 H121       10.4911    2.6054  -17.0233 H         1 SUB1        0.082
     63 H151        9.9940    0.9566  -14.5023 H         1 SUB1        0.049
     64 H152        8.7289    1.6644  -15.5631 H         1 SUB1        0.049
     65 H171       11.4390    2.6011  -13.0972 H         1 SUB1        0.239
     66 H181        8.0685    4.2288  -15.1822 H         1 SUB1        0.032
     67 H191       10.9284    4.9559  -12.1478 H         1 SUB1        0.115
     68 H221       14.7865    2.6427  -16.0337 H         1 SUB1        0.080
     69 H251       15.0228    4.8390  -16.4873 H         1 SUB1        0.031
     70 H252       14.9480    5.1172  -14.7143 H         1 SUB1        0.031
     71 H261       13.2278    6.3101  -16.4073 H         1 SUB1        0.029
     72 H262       12.7018    5.7496  -14.7838 H         1 SUB1        0.029
     73 H271       12.4193    4.3635  -17.4857 H         1 SUB1        0.052
     74 H272       11.2209    4.4974  -16.1543 H         1 SUB1        0.052
     75 H281       12.5227    2.8784  -13.2873 H         1 SUB1        0.188
     76 H291       14.4770    2.4591  -11.2403 H         1 SUB1        0.080
     77 H321       11.6735    1.2796  -11.3435 H         1 SUB1        0.034
     78 H322       12.0107    3.0038  -10.9691 H         1 SUB1        0.034
     79 H331       13.3476    2.3127   -9.0118 H         1 SUB1        0.050
     80 H332       12.9958    0.5908   -9.3837 H         1 SUB1        0.050
     81 H361       10.1415    0.9822   -7.1558 H         1 SUB1        0.181
     82 H362       11.5984    0.0860   -7.4283 H         1 SUB1        0.181
     83 H371       13.2633    0.4838  -13.7413 H         1 SUB1        0.189
     84 H381       14.1935   -2.0357  -12.4727 H         1 SUB1        0.082
     85 H411       12.4309   -3.0971  -13.9552 H         1 SUB1        0.047
     86 H412       12.0262   -1.4821  -14.6295 H         1 SUB1        0.047
     87 H431       12.3605   -3.2322  -11.2812 H         1 SUB1        0.056
     88 H441       10.2738   -0.2333  -13.5573 H         1 SUB1        0.056
     89 H451       10.9315   -2.6936   -9.3207 H         1 SUB1        0.060
     90 H461        8.8609    0.2814  -11.5795 H         1 SUB1        0.060
     91 H471        9.1848   -0.9404   -9.4393 H         1 SUB1        0.056
     92 H481       14.3658   -0.1366  -15.6185 H         1 SUB1        0.188
     93 H491       16.8037   -1.7194  -16.2199 H         1 SUB1        0.081
     94 H521       15.0710   -2.9742  -17.3042 H         1 SUB1        0.043
     95 H522       15.8763   -1.9993  -18.5801 H         1 SUB1        0.043
     96 H541       18.1202    1.3530  -17.2708 H         1 SUB1        0.182
     97 H542       18.3107   -0.1151  -16.3717 H         1 SUB1        0.182
@<TRIPOS>BOND
     1    1    2 2  
     2    3    4 1  
     3    1    3 1  
     4    7    6 1  
     5    6    9 1  
     6    6    5 1  
     7    9   10 1  
     8    7    8 2  
     9   13   12 1  
    10   12   15 1  
    11   12   11 1  
    12   15   16 1  
    13   16   18 2  
    14   16   17 1  
    15   17   19 1  
    16   19   20 2  
    17   18   20 1  
    18   13   14 2  
    19   22   21 1  
    20   22   25 1  
    21   23   22 1  
    22   23   24 2  
    23   25   26 1  
    24   26   27 1  
    25   21   27 1  
    26   30   29 1  
    27   29   32 1  
    28   29   28 1  
    29   32   33 1  
    30   33   34 1  
    31   34   35 2  
    32   34   36 am 
    33   30   31 2  
    34   39   38 1  
    35   38   41 1  
    36   38   37 1  
    37   41   42 1  
    38   42   44 ar 
    39   42   43 ar 
    40   43   45 ar 
    41   45   47 ar 
    42   46   47 ar 
    43   44   46 ar 
    44   39   40 2  
    45   49   50 1  
    46   49   52 1  
    47   48   49 1  
    48   52   53 1  
    49   50   51 2  
    50    5    1 am 
    51   11    7 am 
    52   21   13 am 
    53   28   23 am 
    54   37   30 am 
    55   39   48 am 
    56   10   53 1  
    57   50   54 am 
    58    3   55 1  
    59    3   56 1  
    60    5   57 1  
    61    6   58 1  
    62    9   59 1  
    63    9   60 1  
    64   11   61 1  
    65   12   62 1  
    66   15   63 1  
    67   15   64 1  
    68   17   65 1  
    69   18   66 1  
    70   19   67 1  
    71   22   68 1  
    72   25   69 1  
    73   25   70 1  
    74   26   71 1  
    75   26   72 1  
    76   27   73 1  
    77   27   74 1  
    78   28   75 1  
    79   29   76 1  
    80   32   77 1  
    81   32   78 1  
    82   33   79 1  
    83   33   80 1  
    84   36   81 1  
    85   36   82 1  
    86   37   83 1  
    87   38   84 1  
    88   41   85 1  
    89   41   86 1  
    90   43   87 1  
    91   44   88 1  
    92   45   89 1  
    93   46   90 1  
    94   47   91 1  
    95   48   92 1  
    96   49   93 1  
    97   52   94 1  
    98   52   95 1  
    99   54   96 1  
   100   54   97 1  
@<TRIPOS>SUBSTRUCTURE
     1 SUB1        1 GROUP

