### 
### Created by X-TOOL on Tue Oct 25 00:11:29 2005
### 

@<TRIPOS>MOLECULE
1y3p_ligand
   76    79     1     0     0
SMALL
GAST_HUCK


@<TRIPOS>ATOM
      1 C1        -11.8890   -9.3790   -6.1680 C.3       1 SUB1        0.209
      2 C2        -10.3480   -9.3550   -6.2280 C.3       1 SUB1        0.145
      3 O2         -9.9030   -8.0540   -5.8990 O.3       1 SUB1       -0.381
      4 C3         -9.8100  -10.3360   -5.2230 C.3       1 SUB1        0.115
      5 O3         -8.3880  -10.4310   -5.2180 O.3       1 SUB1       -0.375
      6 C4        -10.4920  -10.4130   -3.9040 C.2       1 SUB1       -0.015
      7 C5        -11.8890  -10.1160   -3.8520 C.2       1 SUB1        0.097
      8 O5        -12.3630   -9.1730   -4.8200 O.3       1 SUB1       -0.295
      9 C6        -12.4940  -10.0040   -2.5570 C.2       1 SUB1        0.061
     10 O6A       -13.3820   -9.1420   -2.4080 O.co2     1 SUB1       -0.572
     11 O6B       -12.1110  -10.7620   -1.6450 O.co2     1 SUB1       -0.572
     12 C1        -15.7150   -6.8220   -8.8210 C.3       1 SUB1        0.192
     13 C2        -15.9840   -7.3680   -7.4120 C.3       1 SUB1        0.135
     14 O2        -16.6880   -8.5970   -7.5000 O.3       1 SUB1       -0.384
     15 C3        -14.6550   -7.5760   -6.6660 C.3       1 SUB1        0.117
     16 O3        -14.8850   -8.2530   -5.4410 O.3       1 SUB1       -0.386
     17 C4        -13.6430   -8.3750   -7.5100 C.3       1 SUB1        0.128
     18 O4        -12.3460   -8.3010   -6.8990 O.3       1 SUB1       -0.333
     19 C5        -13.5290   -7.7730   -8.9020 C.3       1 SUB1        0.130
     20 O5        -14.8300   -7.7000   -9.5100 O.3       1 SUB1       -0.326
     21 C6        -12.5630   -8.5400   -9.7800 C.2       1 SUB1        0.059
     22 O6A       -13.0140   -9.4090  -10.5570 O.co2     1 SUB1       -0.564
     23 O6B       -11.3460   -8.2720   -9.6730 O.co2     1 SUB1       -0.564
     24 C1        -19.1050   -6.3900  -12.3870 C.3       1 SUB1        0.192
     25 C2        -17.9380   -7.3750  -12.3110 C.3       1 SUB1        0.135
     26 O2        -17.7800   -8.0210  -13.5640 O.3       1 SUB1       -0.384
     27 C3        -16.6430   -6.6460  -11.9390 C.3       1 SUB1        0.117
     28 O3        -16.2340   -5.8110  -13.0140 O.3       1 SUB1       -0.386
     29 C4        -16.8310   -5.7980  -10.6760 C.3       1 SUB1        0.127
     30 O4        -16.9180   -6.6360   -9.5060 O.3       1 SUB1       -0.337
     31 C5        -18.0780   -4.9070  -10.7700 C.3       1 SUB1        0.130
     32 O5        -19.2440   -5.6910  -11.1360 O.3       1 SUB1       -0.326
     33 C6        -18.3370   -4.2160   -9.4410 C.2       1 SUB1        0.059
     34 O6A       -19.4960   -4.2360   -8.9750 O.co2     1 SUB1       -0.564
     35 O6B       -17.3730   -3.6760   -8.8540 O.co2     1 SUB1       -0.564
     36 C1        -21.0680   -3.1610  -16.1010 C.3       1 SUB1        0.189
     37 C2        -20.8450   -2.5420  -14.7250 C.3       1 SUB1        0.134
     38 O2        -22.0340   -2.6980  -13.9590 O.3       1 SUB1       -0.384
     39 C3        -19.6940   -3.2770  -14.0380 C.3       1 SUB1        0.117
     40 O3        -19.4720   -2.7370  -12.7430 O.3       1 SUB1       -0.386
     41 C4        -20.0290   -4.7660  -13.9290 C.3       1 SUB1        0.127
     42 O4        -18.8820   -5.4680  -13.4040 O.3       1 SUB1       -0.337
     43 C5        -20.3920   -5.3280  -15.3200 C.3       1 SUB1        0.130
     44 O5        -21.4340   -4.5350  -15.9410 O.3       1 SUB1       -0.327
     45 C6        -20.8530   -6.7680  -15.2580 C.2       1 SUB1        0.059
     46 O6A       -22.0840   -6.9820  -15.2070 O.co2     1 SUB1       -0.564
     47 O6B       -19.9920   -7.6750  -15.2740 O.co2     1 SUB1       -0.564
     48 O1        -19.8960   -3.1080  -16.8420 O.3       1 SUB1       -0.365
     49 H11       -12.2718  -10.3280   -6.5715 H         1 SUB1        0.099
     50 H21       -10.0046   -9.6255   -7.2374 H         1 SUB1        0.071
     51 H31       -10.2608   -7.4314   -6.5210 H         1 SUB1        0.211
     52 H41       -10.1006  -11.2980   -5.6702 H         1 SUB1        0.082
     53 H51        -8.0157   -9.5817   -5.0117 H         1 SUB1        0.214
     54 H61        -9.9433  -10.6876   -3.0043 H         1 SUB1        0.061
     55 H121      -15.2223   -5.8429   -8.7285 H         1 SUB1        0.094
     56 H131      -16.5965   -6.6424   -6.8568 H         1 SUB1        0.067
     57 H141      -16.8517   -8.9302   -6.6256 H         1 SUB1        0.210
     58 H151      -14.2229   -6.5880   -6.4487 H         1 SUB1        0.065
     59 H161      -14.0588   -8.3763   -4.9886 H         1 SUB1        0.210
     60 H171      -13.9684   -9.4234   -7.5801 H         1 SUB1        0.069
     61 H191      -13.1425   -6.7486   -8.7964 H         1 SUB1        0.084
     62 H241      -20.0312   -6.9450  -12.5970 H         1 SUB1        0.094
     63 H251      -18.1566   -8.1297  -11.5412 H         1 SUB1        0.067
     64 H261      -18.5772   -8.4906  -13.7797 H         1 SUB1        0.210
     65 H271      -15.8596   -7.3944  -11.7488 H         1 SUB1        0.065
     66 H281      -16.9139   -5.1723  -13.1938 H         1 SUB1        0.210
     67 H291      -15.9511   -5.1463  -10.5707 H         1 SUB1        0.069
     68 H311      -17.9065   -4.1427  -11.5423 H         1 SUB1        0.084
     69 H361      -21.8666   -2.6170  -16.6266 H         1 SUB1        0.094
     70 H371      -20.6009   -1.4742  -14.8256 H         1 SUB1        0.067
     71 H381      -22.2329   -3.6227  -13.8699 H         1 SUB1        0.210
     72 H391      -18.7805   -3.1558  -14.6386 H         1 SUB1        0.065
     73 H401      -20.2598   -2.8344  -12.2212 H         1 SUB1        0.210
     74 H411      -20.8834   -4.8998  -13.2493 H         1 SUB1        0.069
     75 H431      -19.4912   -5.2800  -15.9495 H         1 SUB1        0.084
     76 H481      -19.2103   -3.5776  -16.3819 H         1 SUB1        0.213
@<TRIPOS>BOND
     1    1    2 1  
     2    1    8 1  
     3   18    1 1  
     4    2    3 1  
     5    2    4 1  
     6    4    5 1  
     7    4    6 1  
     8    7    6 2  
     9    8    7 1  
    10    7    9 1  
    11    9   10 2  
    12    9   11 2  
    13   12   13 1  
    14   12   20 1  
    15   30   12 1  
    16   13   14 1  
    17   13   15 1  
    18   15   16 1  
    19   15   17 1  
    20   17   18 1  
    21   19   17 1  
    22   20   19 1  
    23   19   21 1  
    24   21   22 2  
    25   21   23 2  
    26   24   25 1  
    27   24   32 1  
    28   42   24 1  
    29   25   26 1  
    30   25   27 1  
    31   27   28 1  
    32   27   29 1  
    33   29   30 1  
    34   31   29 1  
    35   32   31 1  
    36   31   33 1  
    37   33   34 2  
    38   33   35 2  
    39   37   36 1  
    40   36   44 1  
    41   36   48 1  
    42   37   38 1  
    43   39   37 1  
    44   39   40 1  
    45   41   39 1  
    46   41   42 1  
    47   41   43 1  
    48   43   44 1  
    49   43   45 1  
    50   45   46 2  
    51   45   47 2  
    52    1   49 1  
    53    2   50 1  
    54    3   51 1  
    55    4   52 1  
    56    5   53 1  
    57    6   54 1  
    58   12   55 1  
    59   13   56 1  
    60   14   57 1  
    61   15   58 1  
    62   16   59 1  
    63   17   60 1  
    64   19   61 1  
    65   24   62 1  
    66   25   63 1  
    67   26   64 1  
    68   27   65 1  
    69   28   66 1  
    70   29   67 1  
    71   31   68 1  
    72   36   69 1  
    73   37   70 1  
    74   38   71 1  
    75   39   72 1  
    76   40   73 1  
    77   41   74 1  
    78   43   75 1  
    79   48   76 1  
@<TRIPOS>SUBSTRUCTURE
     1 SUB1        1 GROUP

