2fpz_ligand
  -I-interpret- 

 17 18  0  0  0  0  0  0  0  0999 V2000
   32.0420   20.7960   83.2330 N   0  0  0  0  0
   32.8570   21.5580   84.0050 C   0  0  0  0  0
   30.8320   20.7930   83.7940 C   0  0  0  0  0
   29.6060   20.1670   83.4160 C   0  0  0  0  0
   28.4470   20.3620   84.2480 C   0  0  0  0  0
   28.5370   21.1730   85.4340 C   0  0  0  0  0
   29.7790   21.7960   85.8000 C   0  0  0  0  0
   30.9210   21.5940   84.9610 C   0  0  0  0  0
   32.1820   22.0510   85.0650 N   0  0  0  0  0
   34.1580   21.7870   83.7450 N   0  0  0  0  0
   29.5484   19.5542   82.5164 H   0  0  0  0  0
   27.4997   19.8946   83.9793 H   0  0  0  0  0
   27.6558   21.3156   86.0595 H   0  0  0  0  0
   29.8501   22.4097   86.6980 H   0  0  0  0  0
   32.5547   22.6518   85.8002 H   0  0  0  0  0
   34.5933   21.3751   82.9196 H   0  0  0  0  0
   34.7083   22.3724   84.3734 H   0  0  0  0  0
  1  2  2  0  0  0
  1  3  1  0  0  0
  2  9  1  0  0  0
  2 10  1  0  0  0
  3  4  4  0  0  0
  3  8  4  0  0  0
  4  5  4  0  0  0
  5  6  4  0  0  0
  6  7  4  0  0  0
  7  8  4  0  0  0
  8  9  1  0  0  0
  4 11  1  0  0  0
  5 12  1  0  0  0
  6 13  1  0  0  0
  7 14  1  0  0  0
  9 15  1  0  0  0
 10 16  1  0  0  0
 10 17  1  0  0  0
M  END
$$$$
