### 
### Created by X-TOOL on Sun Jun  3 12:21:59 2007
### 

@<TRIPOS>MOLECULE
2fpz_ligand
   17    18     1     0     0
SMALL
GAST_HUCK


@<TRIPOS>ATOM
      1 N1         32.0420   20.7960   83.2330 N.2       1 SUB1       -0.314
      2 C1         32.8570   21.5580   84.0050 C.2       1 SUB1        0.211
      3 C2         30.8320   20.7930   83.7940 C.ar      1 SUB1        0.011
      4 C3         29.6060   20.1670   83.4160 C.ar      1 SUB1       -0.069
      5 C4         28.4470   20.3620   84.2480 C.ar      1 SUB1       -0.081
      6 C5         28.5370   21.1730   85.4340 C.ar      1 SUB1       -0.079
      7 C6         29.7790   21.7960   85.8000 C.ar      1 SUB1       -0.045
      8 C7         30.9210   21.5940   84.9610 C.ar      1 SUB1        0.075
      9 N3         32.1820   22.0510   85.0650 N.pl3     1 SUB1       -0.230
     10 N2         34.1580   21.7870   83.7450 N.pl3     1 SUB1       -0.289
     11 H          29.5484   19.5542   82.5164 H         1 SUB1        0.052
     12 H          27.4997   19.8946   83.9793 H         1 SUB1        0.051
     13 H          27.6558   21.3156   86.0595 H         1 SUB1        0.051
     14 H          29.8501   22.4097   86.6980 H         1 SUB1        0.053
     15 H          32.5547   22.6518   85.8002 H         1 SUB1        0.231
     16 H          34.5933   21.3751   82.9196 H         1 SUB1        0.186
     17 H          34.7083   22.3724   84.3734 H         1 SUB1        0.186
@<TRIPOS>BOND
     1    1    2 2  
     2    1    3 1  
     3    2    9 1  
     4    2   10 1  
     5    3    4 ar 
     6    3    8 ar 
     7    4    5 ar 
     8    5    6 ar 
     9    6    7 ar 
    10    7    8 ar 
    11    8    9 1  
    12    4   11 1  
    13    5   12 1  
    14    6   13 1  
    15    7   14 1  
    16    9   15 1  
    17   10   16 1  
    18   10   17 1  
@<TRIPOS>SUBSTRUCTURE
     1 SUB1        1 GROUP

