### 
### Created by X-TOOL on Sun Jun  3 11:58:17 2007
### 

@<TRIPOS>MOLECULE
2c94_ligand
   53    54     1     0     0
SMALL
GAST_HUCK


@<TRIPOS>ATOM
      1 O2P        47.2760    3.5220   -1.4210 O.co2     1 SUB1       -0.539
      2 P          47.2250    3.6840    0.0730 P.3       1 SUB1        0.132
      3 O3P        48.5930    3.6690    0.7200 O.co2     1 SUB1       -0.539
      4 O1P        46.3210    4.8010    0.5490 O.co2     1 SUB1       -0.539
      5 C19        46.4410    2.1600    0.6650 C.3       1 SUB1        0.291
      6 F1         45.1980    2.1080    0.2250 F         1 SUB1       -0.198
      7 F2         47.1280    1.1390    0.1860 F         1 SUB1       -0.198
      8 C18        46.4300    2.1160    2.1900 C.3       1 SUB1        0.017
      9 C17        46.4380    0.6850    2.7280 C.3       1 SUB1       -0.045
     10 C16        45.4590    0.5340    3.8870 C.3       1 SUB1       -0.029
     11 C15        44.0430    0.6770    3.3510 C.3       1 SUB1        0.043
     12 N5         43.0900    0.4180    4.4260 N.am      1 SUB1       -0.235
     13 C9         42.6070   -0.7460    4.8740 C.2       1 SUB1        0.149
     14 C4         42.8660   -2.1430    4.4590 C.2       1 SUB1        0.200
     15 O2         43.6580   -2.4280    3.5310 O.2       1 SUB1       -0.420
     16 N3         42.1900   -3.0890    5.1320 N.am      1 SUB1       -0.191
     17 C6         42.4790    1.3160    5.2040 C.2       1 SUB1        0.299
     18 O4         42.6650    2.5850    5.0870 O.2       1 SUB1       -0.408
     19 N7         41.6320    0.8430    6.1190 N.am      1 SUB1       -0.181
     20 C8         41.6550   -0.4910    5.9700 C.2       1 SUB1        0.199
     21 N1         41.0700   -1.5420    6.5470 N.am      1 SUB1       -0.194
     22 C2         41.3310   -2.7950    6.1430 C.2       1 SUB1        0.316
     23 O1         40.7380   -3.7180    6.7320 O.2       1 SUB1       -0.388
     24 C10        40.8930    1.7060    7.0310 C.3       1 SUB1        0.089
     25 C11        40.2270    1.0250    8.2130 C.3       1 SUB1        0.110
     26 O19        41.0720    0.0980    8.9140 O.3       1 SUB1       -0.387
     27 C12        39.5550    2.0120    9.1620 C.3       1 SUB1        0.111
     28 O21        38.1710    1.7020    8.9690 O.3       1 SUB1       -0.387
     29 C13        39.7630    3.5190    8.9130 C.3       1 SUB1        0.106
     30 O23        41.1230    3.9190    9.1400 O.3       1 SUB1       -0.387
     31 C14        38.8720    4.3650    9.8230 C.3       1 SUB1        0.073
     32 O26        39.0540    3.9240   11.1800 O.3       1 SUB1       -0.392
     33 H          45.5248    2.6253    2.5523 H         1 SUB1        0.033
     34 H          47.3210    2.6403    2.5657 H         1 SUB1        0.033
     35 H          47.4511    0.4374    3.0778 H         1 SUB1        0.027
     36 H          46.1499   -0.0048    1.9211 H         1 SUB1        0.027
     37 H          45.6511    1.3146    4.6379 H         1 SUB1        0.029
     38 H          45.5817   -0.4569    4.3485 H         1 SUB1        0.029
     39 H          43.8837   -0.0457    2.5372 H         1 SUB1        0.056
     40 H          43.8965    1.6979    2.9686 H         1 SUB1        0.056
     41 H          42.3242   -4.0471    4.8790 H         1 SUB1        0.224
     42 H          40.4240   -1.3932    7.2957 H         1 SUB1        0.231
     43 H          40.1078    2.2124    6.4504 H         1 SUB1        0.062
     44 H          41.5956    2.4536    7.4277 H         1 SUB1        0.062
     45 H          39.4154    0.4195    7.7833 H         1 SUB1        0.065
     46 H          40.5886   -0.2857    9.6361 H         1 SUB1        0.210
     47 H          39.8710    1.7940   10.1928 H         1 SUB1        0.065
     48 H          37.6415    2.2657    9.5206 H         1 SUB1        0.210
     49 H          39.5027    3.7296    7.8652 H         1 SUB1        0.064
     50 H          41.3612    3.7309   10.0402 H         1 SUB1        0.210
     51 H          37.8189    4.2405    9.5307 H         1 SUB1        0.058
     52 H          39.1537    5.4248    9.7366 H         1 SUB1        0.058
     53 H          39.9650    4.0313   11.4272 H         1 SUB1        0.209
@<TRIPOS>BOND
     1    1    2 2  
     2    2    3 2  
     3    2    4 2  
     4    2    5 1  
     5    5    6 1  
     6    5    7 1  
     7    5    8 1  
     8    8    9 1  
     9    9   10 1  
    10   10   11 1  
    11   11   12 1  
    12   12   13 am 
    13   12   17 am 
    14   13   14 1  
    15   13   20 2  
    16   14   15 2  
    17   14   16 am 
    18   16   22 am 
    19   17   18 2  
    20   17   19 am 
    21   19   20 am 
    22   19   24 1  
    23   20   21 am 
    24   21   22 am 
    25   22   23 2  
    26   24   25 1  
    27   25   26 1  
    28   25   27 1  
    29   27   28 1  
    30   27   29 1  
    31   29   30 1  
    32   29   31 1  
    33   31   32 1  
    34    8   33 1  
    35    8   34 1  
    36    9   35 1  
    37    9   36 1  
    38   10   37 1  
    39   10   38 1  
    40   11   39 1  
    41   11   40 1  
    42   16   41 1  
    43   21   42 1  
    44   24   43 1  
    45   24   44 1  
    46   25   45 1  
    47   26   46 1  
    48   27   47 1  
    49   28   48 1  
    50   29   49 1  
    51   30   50 1  
    52   31   51 1  
    53   31   52 1  
    54   32   53 1  
@<TRIPOS>SUBSTRUCTURE
     1 SUB1        1 GROUP

