1elr_ligand
  -I-interpret- 

 82 81  0  0  0  0  0  0  0  0999 V2000
   29.7870    6.1460   14.2530 C   0  0  0  0  0
   29.5220    5.6090   13.1770 O   0  0  0  0  0
   31.0170    7.0030   14.4080 C   0  0  0  0  0
   29.0240    6.0220   15.3310 N   0  0  0  0  0
   27.8120    5.2070   15.3320 C   0  0  0  0  0
   26.6740    5.8570   14.5360 C   0  0  0  0  0
   26.6340    7.0800   14.3640 O   0  0  0  0  0
   27.3210    5.0030   16.7750 C   0  0  0  0  0
   28.3160    4.3950   17.7330 C   0  0  0  0  0
   27.6370    4.3870   19.4090 S   0  0  0  0  0
   26.4770    3.0390   19.2830 C   0  0  0  0  0
   25.7430    5.0300   14.0640 N   0  0  0  0  0
   24.5780    5.5300   13.3420 C   0  0  0  0  0
   23.8740    6.5100   14.2830 C   0  0  0  0  0
   23.8990    6.3250   15.4980 O   0  0  0  0  0
   23.6290    4.3700   12.9940 C   0  0  0  0  0
   24.1060    3.5000   11.8420 C   0  0  0  0  0
   24.1450    4.2770   10.5440 C   0  0  0  0  0
   23.0660    4.5980   10.0060 O   0  5  0  0  0
   25.2520    4.5890   10.0680 O   0  0  0  0  0
   23.2470    7.5410   13.7280 N   0  0  0  0  0
   22.5480    8.5480   14.5320 C   0  0  0  0  0
   21.1190    8.1540   14.8850 C   0  0  0  0  0
   20.3790    7.6990   14.0230 O   0  0  0  0  0
   22.4880    9.8810   13.7700 C   0  0  0  0  0
   23.8170   10.6070   13.6400 C   0  0  0  0  0
   23.7290   11.8320   12.7290 C   0  0  0  0  0
   22.7620   12.6220   12.8640 O   0  5  0  0  0
   24.6360   12.0030   11.8820 O   0  0  0  0  0
   20.7260    8.3320   16.1460 N   0  0  0  0  0
   19.3450    8.0420   16.5340 C   0  0  0  0  0
   18.6250    9.3680   16.7440 C   0  0  0  0  0
   19.2470   10.3740   17.1100 O   0  0  0  0  0
   19.2250    7.1830   17.8150 C   0  0  0  0  0
   19.6210    5.7350   17.5080 C   0  0  0  0  0
   20.0750    7.7570   18.9310 C   0  0  0  0  0
   17.3160    9.3620   16.5120 N   0  0  0  0  0
   16.4950   10.5580   16.6300 C   0  0  0  0  0
   15.5980   10.5480   17.8720 C   0  0  0  0  0
   15.4870    9.4870   18.5080 O   0  0  0  0  0
   15.6340   10.6840   15.3730 C   0  0  0  0  0
   16.4670   10.7630   14.1100 C   0  0  0  0  0
   17.1010   11.8130   13.8980 O   0  0  0  0  0
   16.5050    9.7720   13.3360 O   0  5  0  0  0
   15.0060   11.6050   18.1750 O   0  5  0  0  0
   29.2866    6.5011   16.1685 H   0  0  0  0  0
   28.0375    4.2325   14.8744 H   0  0  0  0  0
   27.0345    5.9839   17.1821 H   0  0  0  0  0
   26.4310    4.3574   16.7454 H   0  0  0  0  0
   28.5323    3.3587   17.4343 H   0  0  0  0  0
   29.2516    4.9729   17.7115 H   0  0  0  0  0
   25.9692    2.9119   20.2504 H   0  0  0  0  0
   25.7259    3.2614   18.5108 H   0  0  0  0  0
   27.0051    2.1140   19.0082 H   0  0  0  0  0
   25.8446    4.0456   14.2075 H   0  0  0  0  0
   24.8849    6.0536   12.4246 H   0  0  0  0  0
   23.5228    3.7248   13.8785 H   0  0  0  0  0
   22.6437    4.7871   12.7387 H   0  0  0  0  0
   25.1203    3.1332   12.0579 H   0  0  0  0  0
   23.4323    2.6373   11.7339 H   0  0  0  0  0
   23.2519    7.6330   12.7323 H   0  0  0  0  0
   23.1004    8.6863   15.4731 H   0  0  0  0  0
   22.1182    9.6841   12.7530 H   0  0  0  0  0
   21.7760   10.5430   14.2845 H   0  0  0  0  0
   24.1412   10.9439   14.6356 H   0  0  0  0  0
   24.5683    9.9108   13.2390 H   0  0  0  0  0
   21.3765    8.6646   16.8288 H   0  0  0  0  0
   18.8530    7.5058   15.7091 H   0  0  0  0  0
   18.1748    7.1790   18.1419 H   0  0  0  0  0
   19.5269    5.1358   18.4256 H   0  0  0  0  0
   18.9542    5.3188   16.7386 H   0  0  0  0  0
   20.6560    5.6996   17.1372 H   0  0  0  0  0
   19.9707    7.1222   19.8233 H   0  0  0  0  0
   21.1317    7.7754   18.6261 H   0  0  0  0  0
   19.7532    8.7842   19.1574 H   0  0  0  0  0
   16.8787    8.5029   16.2462 H   0  0  0  0  0
   17.1559   11.4337   16.7092 H   0  0  0  0  0
   14.9777    9.8046   15.2964 H   0  0  0  0  0
   15.0101   11.5864   15.4534 H   0  0  0  0  0
   31.0622    7.3813   15.4399 H   0  0  0  0  0
   31.9183    6.4057   14.2057 H   0  0  0  0  0
   30.9694    7.8563   13.7155 H   0  0  0  0  0
  1  2  2  0  0  0
  1  3  1  0  0  0
  5  4  1  0  0  0
  5  8  1  0  0  0
  6  5  1  0  0  0
  6  7  2  0  0  0
  8  9  1  0  0  0
  9 10  1  0  0  0
 10 11  1  0  0  0
  4  1  1  0  0  0
 13 12  1  0  0  0
 13 16  1  0  0  0
 14 13  1  0  0  0
 14 15  2  0  0  0
 16 17  1  0  0  0
 17 18  1  0  0  0
 18 20  2  0  0  0
 18 19  1  0  0  0
 12  6  1  0  0  0
 22 21  1  0  0  0
 22 25  1  0  0  0
 23 22  1  0  0  0
 23 24  2  0  0  0
 25 26  1  0  0  0
 26 27  1  0  0  0
 27 29  2  0  0  0
 27 28  1  0  0  0
 21 14  1  0  0  0
 31 30  1  0  0  0
 31 34  1  0  0  0
 32 31  1  0  0  0
 32 33  2  0  0  0
 34 36  1  0  0  0
 34 35  1  0  0  0
 30 23  1  0  0  0
 37 38  1  0  0  0
 38 41  1  0  0  0
 38 39  1  0  0  0
 39 40  2  0  0  0
 39 45  1  0  0  0
 41 42  1  0  0  0
 42 43  2  0  0  0
 42 44  1  0  0  0
 32 37  1  0  0  0
  4 46  1  0  0  0
  5 47  1  0  0  0
  8 48  1  0  0  0
  8 49  1  0  0  0
  9 50  1  0  0  0
  9 51  1  0  0  0
 11 52  1  0  0  0
 11 53  1  0  0  0
 11 54  1  0  0  0
 12 55  1  0  0  0
 13 56  1  0  0  0
 16 57  1  0  0  0
 16 58  1  0  0  0
 17 59  1  0  0  0
 17 60  1  0  0  0
 21 61  1  0  0  0
 22 62  1  0  0  0
 25 63  1  0  0  0
 25 64  1  0  0  0
 26 65  1  0  0  0
 26 66  1  0  0  0
 30 67  1  0  0  0
 31 68  1  0  0  0
 34 69  1  0  0  0
 35 70  1  0  0  0
 35 71  1  0  0  0
 35 72  1  0  0  0
 36 73  1  0  0  0
 36 74  1  0  0  0
 36 75  1  0  0  0
 37 76  1  0  0  0
 38 77  1  0  0  0
 41 78  1  0  0  0
 41 79  1  0  0  0
  3 80  1  0  0  0
  3 81  1  0  0  0
  3 82  1  0  0  0
M  END
$$$$
