### 
### Created by X-TOOL on Mon Oct 24 23:06:55 2005
### 

@<TRIPOS>MOLECULE
1elr_ligand
   82    81     1     0     0
SMALL
GAST_HUCK


@<TRIPOS>ATOM
      1 C          29.7870    6.1460   14.2530 C.2       1 SUB1        0.175
      2 O          29.5220    5.6090   13.1770 O.2       1 SUB1       -0.397
      3 CH3        31.0170    7.0030   14.4080 C.3       1 SUB1        0.026
      4 N          29.0240    6.0220   15.3310 N.am      1 SUB1       -0.266
      5 CA         27.8120    5.2070   15.3320 C.3       1 SUB1        0.132
      6 C          26.6740    5.8570   14.5360 C.2       1 SUB1        0.204
      7 O          26.6340    7.0800   14.3640 O.2       1 SUB1       -0.394
      8 CB         27.3210    5.0030   16.7750 C.3       1 SUB1       -0.003
      9 CG         28.3160    4.3950   17.7330 C.3       1 SUB1       -0.002
     10 SD         27.6370    4.3870   19.4090 S.3       1 SUB1       -0.164
     11 CE         26.4770    3.0390   19.2830 C.3       1 SUB1       -0.018
     12 N          25.7430    5.0300   14.0640 N.am      1 SUB1       -0.263
     13 CA         24.5780    5.5300   13.3420 C.3       1 SUB1        0.134
     14 C          23.8740    6.5100   14.2830 C.2       1 SUB1        0.204
     15 O          23.8990    6.3250   15.4980 O.2       1 SUB1       -0.394
     16 CB         23.6290    4.3700   12.9940 C.3       1 SUB1       -0.001
     17 CG         24.1060    3.5000   11.8420 C.3       1 SUB1       -0.010
     18 CD         24.1450    4.2770   10.5440 C.2       1 SUB1        0.028
     19 OE1        23.0660    4.5980   10.0060 O.co2     1 SUB1       -0.567
     20 OE2        25.2520    4.5890   10.0680 O.co2     1 SUB1       -0.567
     21 N          23.2470    7.5410   13.7280 N.am      1 SUB1       -0.263
     22 CA         22.5480    8.5480   14.5320 C.3       1 SUB1        0.134
     23 C          21.1190    8.1540   14.8850 C.2       1 SUB1        0.204
     24 O          20.3790    7.6990   14.0230 O.2       1 SUB1       -0.394
     25 CB         22.4880    9.8810   13.7700 C.3       1 SUB1       -0.001
     26 CG         23.8170   10.6070   13.6400 C.3       1 SUB1       -0.010
     27 CD         23.7290   11.8320   12.7290 C.2       1 SUB1        0.028
     28 OE1        22.7620   12.6220   12.8640 O.co2     1 SUB1       -0.567
     29 OE2        24.6360   12.0030   11.8820 O.co2     1 SUB1       -0.567
     30 N          20.7260    8.3320   16.1460 N.am      1 SUB1       -0.264
     31 CA         19.3450    8.0420   16.5340 C.3       1 SUB1        0.133
     32 C          18.6250    9.3680   16.7440 C.2       1 SUB1        0.205
     33 O          19.2470   10.3740   17.1100 O.2       1 SUB1       -0.394
     34 CB         19.2250    7.1830   17.8150 C.3       1 SUB1       -0.006
     35 CG1        19.6210    5.7350   17.5080 C.3       1 SUB1       -0.058
     36 CG2        20.0750    7.7570   18.9310 C.3       1 SUB1       -0.058
     37 N          17.3160    9.3620   16.5120 N.am      1 SUB1       -0.265
     38 CA         16.4950   10.5580   16.6300 C.3       1 SUB1        0.092
     39 C          15.5980   10.5480   17.8720 C.2       1 SUB1        0.056
     40 O          15.4870    9.4870   18.5080 O.co2     1 SUB1       -0.564
     41 CB         15.6340   10.6840   15.3730 C.3       1 SUB1        0.021
     42 CG         16.4670   10.7630   14.1100 C.2       1 SUB1        0.033
     43 OD1        17.1010   11.8130   13.8980 O.co2     1 SUB1       -0.566
     44 OD2        16.5050    9.7720   13.3360 O.co2     1 SUB1       -0.566
     45 OXT        15.0060   11.6050   18.1750 O.co2     1 SUB1       -0.564
     46 H41        29.2866    6.5011   16.1685 H         1 SUB1        0.188
     47 H51        28.0375    4.2325   14.8744 H         1 SUB1        0.080
     48 H81        27.0345    5.9839   17.1821 H         1 SUB1        0.032
     49 H82        26.4310    4.3574   16.7454 H         1 SUB1        0.032
     50 H91        28.5323    3.3587   17.4343 H         1 SUB1        0.038
     51 H92        29.2516    4.9729   17.7115 H         1 SUB1        0.038
     52 H111       25.9692    2.9119   20.2504 H         1 SUB1        0.034
     53 H112       25.7259    3.2614   18.5108 H         1 SUB1        0.034
     54 H113       27.0051    2.1140   19.0082 H         1 SUB1        0.034
     55 H121       25.8446    4.0456   14.2075 H         1 SUB1        0.188
     56 H131       24.8849    6.0536   12.4246 H         1 SUB1        0.080
     57 H161       23.5228    3.7248   13.8785 H         1 SUB1        0.035
     58 H162       22.6437    4.7871   12.7387 H         1 SUB1        0.035
     59 H171       25.1203    3.1332   12.0579 H         1 SUB1        0.049
     60 H172       23.4323    2.6373   11.7339 H         1 SUB1        0.049
     61 H211       23.2519    7.6330   12.7323 H         1 SUB1        0.188
     62 H221       23.1004    8.6863   15.4731 H         1 SUB1        0.080
     63 H251       22.1182    9.6841   12.7530 H         1 SUB1        0.035
     64 H252       21.7760   10.5430   14.2845 H         1 SUB1        0.035
     65 H261       24.1412   10.9439   14.6356 H         1 SUB1        0.049
     66 H262       24.5683    9.9108   13.2390 H         1 SUB1        0.049
     67 H301       21.3765    8.6646   16.8288 H         1 SUB1        0.188
     68 H311       18.8530    7.5058   15.7091 H         1 SUB1        0.080
     69 H341       18.1748    7.1790   18.1419 H         1 SUB1        0.034
     70 H351       19.5269    5.1358   18.4256 H         1 SUB1        0.023
     71 H352       18.9542    5.3188   16.7386 H         1 SUB1        0.023
     72 H353       20.6560    5.6996   17.1372 H         1 SUB1        0.023
     73 H361       19.9707    7.1222   19.8233 H         1 SUB1        0.023
     74 H362       21.1317    7.7754   18.6261 H         1 SUB1        0.023
     75 H363       19.7532    8.7842   19.1574 H         1 SUB1        0.023
     76 H371       16.8787    8.5029   16.2462 H         1 SUB1        0.190
     77 H381       17.1559   11.4337   16.7092 H         1 SUB1        0.081
     78 H411       14.9777    9.8046   15.2964 H         1 SUB1        0.054
     79 H412       15.0101   11.5864   15.4534 H         1 SUB1        0.054
     80 H31        31.0622    7.3813   15.4399 H         1 SUB1        0.047
     81 H32        31.9183    6.4057   14.2057 H         1 SUB1        0.047
     82 H33        30.9694    7.8563   13.7155 H         1 SUB1        0.047
@<TRIPOS>BOND
     1    1    2 2  
     2    1    3 1  
     3    5    4 1  
     4    5    8 1  
     5    6    5 1  
     6    6    7 2  
     7    8    9 1  
     8    9   10 1  
     9   10   11 1  
    10    4    1 am 
    11   13   12 1  
    12   13   16 1  
    13   14   13 1  
    14   14   15 2  
    15   16   17 1  
    16   17   18 1  
    17   18   20 2  
    18   18   19 2  
    19   12    6 am 
    20   22   21 1  
    21   22   25 1  
    22   23   22 1  
    23   23   24 2  
    24   25   26 1  
    25   26   27 1  
    26   27   29 2  
    27   27   28 2  
    28   21   14 am 
    29   31   30 1  
    30   31   34 1  
    31   32   31 1  
    32   32   33 2  
    33   34   36 1  
    34   34   35 1  
    35   30   23 am 
    36   37   38 1  
    37   38   41 1  
    38   38   39 1  
    39   39   40 2  
    40   39   45 2  
    41   41   42 1  
    42   42   43 2  
    43   42   44 2  
    44   32   37 am 
    45    4   46 1  
    46    5   47 1  
    47    8   48 1  
    48    8   49 1  
    49    9   50 1  
    50    9   51 1  
    51   11   52 1  
    52   11   53 1  
    53   11   54 1  
    54   12   55 1  
    55   13   56 1  
    56   16   57 1  
    57   16   58 1  
    58   17   59 1  
    59   17   60 1  
    60   21   61 1  
    61   22   62 1  
    62   25   63 1  
    63   25   64 1  
    64   26   65 1  
    65   26   66 1  
    66   30   67 1  
    67   31   68 1  
    68   34   69 1  
    69   35   70 1  
    70   35   71 1  
    71   35   72 1  
    72   36   73 1  
    73   36   74 1  
    74   36   75 1  
    75   37   76 1  
    76   38   77 1  
    77   41   78 1  
    78   41   79 1  
    79    3   80 1  
    80    3   81 1  
    81    3   82 1  
@<TRIPOS>SUBSTRUCTURE
     1 SUB1        1 GROUP

