1lrh_ligand
  -I-interpret- 

 23 24  0  0  0  0  0  0  0  0999 V2000
   68.9059   40.8218   26.2092 H   0  0  0  0  0
   70.7491   41.4276   24.6457 H   0  0  0  0  0
   70.2932   42.1436   22.3867 H   0  0  0  0  0
   68.6981   42.4781   20.4773 H   0  0  0  0  0
   66.3873   42.4593   19.6437 H   0  0  0  0  0
   64.4941   41.7904   21.1125 H   0  0  0  0  0
   64.8841   41.1447   23.4577 H   0  0  0  0  0
   65.4199   40.1623   25.1998 H   0  0  0  0  0
   65.9250   41.5012   26.2856 H   0  0  0  0  0
   67.0620   41.4120   23.3770 C   0  0  0  0  0
   67.3560   41.0350   24.7090 C   0  0  0  0  0
   68.6830   41.0750   25.1790 C   0  0  0  0  0
   69.7240   41.4490   24.2940 C   0  0  0  0  0
   69.4720   41.8320   23.0220 C   0  0  0  0  0
   68.1620   41.8330   22.5090 C   0  0  0  0  0
   67.8870   42.1940   21.1380 C   0  0  0  0  0
   66.5860   42.1760   20.6710 C   0  0  0  0  0
   65.5030   41.7940   21.5090 C   0  0  0  0  0
   65.7230   41.4250   22.8310 C   0  0  0  0  0
   66.2660   40.6060   25.7450 C   0  0  0  0  0
   66.7580   39.6240   26.7270 C   0  0  0  0  0
   66.8010   38.3250   26.4730 O   0  5  0  0  0
   67.2210   40.1640   27.8410 O   0  0  0  0  0
 12  1  1  0  0  0
 13  2  1  0  0  0
 14  3  1  0  0  0
 16  4  1  0  0  0
 17  5  1  0  0  0
 18  6  1  0  0  0
 19  7  1  0  0  0
 20  8  1  0  0  0
 20  9  1  0  0  0
 10 19  4  0  0  0
 15 10  4  0  0  0
 10 11  4  0  0  0
 11 20  1  0  0  0
 11 12  4  0  0  0
 13 12  4  0  0  0
 14 13  4  0  0  0
 15 14  4  0  0  0
 16 15  4  0  0  0
 17 16  4  0  0  0
 17 18  4  0  0  0
 18 19  4  0  0  0
 20 21  1  0  0  0
 21 23  2  0  0  0
 21 22  1  0  0  0
M  END
$$$$
