### 
### Created by X-TOOL on Mon Oct 24 23:08:07 2005
### 

@<TRIPOS>MOLECULE
1lrh_ligand
   23    24     1     0     0
SMALL
GAST_HUCK


@<TRIPOS>ATOM
      1 H121       68.9059   40.8218   26.2092 H         1 SUB1        0.053
      2 H131       70.7491   41.4276   24.6457 H         1 SUB1        0.059
      3 H141       70.2932   42.1436   22.3867 H         1 SUB1        0.054
      4 H161       68.6981   42.4781   20.4773 H         1 SUB1        0.060
      5 H171       66.3873   42.4593   19.6437 H         1 SUB1        0.061
      6 H181       64.4941   41.7904   21.1125 H         1 SUB1        0.060
      7 H191       64.8841   41.1447   23.4577 H         1 SUB1        0.062
      8 H201       65.4199   40.1623   25.1998 H         1 SUB1        0.068
      9 H202       65.9250   41.5012   26.2856 H         1 SUB1        0.068
     10 C1         67.0620   41.4120   23.3770 C.ar      1 SUB1       -0.010
     11 C2         67.3560   41.0350   24.7090 C.ar      1 SUB1       -0.019
     12 C3         68.6830   41.0750   25.1790 C.ar      1 SUB1       -0.059
     13 C4         69.7240   41.4490   24.2940 C.ar      1 SUB1       -0.071
     14 C5         69.4720   41.8320   23.0220 C.ar      1 SUB1       -0.064
     15 C6         68.1620   41.8330   22.5090 C.ar      1 SUB1       -0.025
     16 C7         67.8870   42.1940   21.1380 C.ar      1 SUB1       -0.058
     17 C8         66.5860   42.1760   20.6710 C.ar      1 SUB1       -0.064
     18 C9         65.5030   41.7940   21.5090 C.ar      1 SUB1       -0.063
     19 C10        65.7230   41.4250   22.8310 C.ar      1 SUB1       -0.056
     20 C11        66.2660   40.6060   25.7450 C.3       1 SUB1        0.023
     21 C12        66.7580   39.6240   26.7270 C.2       1 SUB1        0.043
     22 O1         66.8010   38.3250   26.4730 O.co2     1 SUB1       -0.562
     23 O2         67.2210   40.1640   27.8410 O.co2     1 SUB1       -0.562
@<TRIPOS>BOND
     1   12    1 1  
     2   13    2 1  
     3   14    3 1  
     4   16    4 1  
     5   17    5 1  
     6   18    6 1  
     7   19    7 1  
     8   20    8 1  
     9   20    9 1  
    10   10   19 ar 
    11   15   10 ar 
    12   10   11 ar 
    13   11   20 1  
    14   11   12 ar 
    15   13   12 ar 
    16   14   13 ar 
    17   15   14 ar 
    18   16   15 ar 
    19   17   16 ar 
    20   17   18 ar 
    21   18   19 ar 
    22   20   21 1  
    23   21   23 2  
    24   21   22 2  
@<TRIPOS>SUBSTRUCTURE
     1 SUB1        1 GROUP

