### 
### Created by X-TOOL on Mon Oct 24 23:01:57 2005
### 

@<TRIPOS>MOLECULE
1mmq_ligand
   69    71     1     0     0
SMALL
GAST_HUCK


@<TRIPOS>ATOM
      1 C1         47.9690  -40.9710   50.9150 C.2       1 SUB1        0.201
      2 O2         46.7560  -40.8270   50.6010 O.2       1 SUB1       -0.397
      3 N1         48.6030  -41.4840   51.9510 N.am      1 SUB1       -0.164
      4 O1         47.7630  -42.0180   52.9250 O.3       1 SUB1       -0.272
      5 C2         48.7780  -40.2470   49.8760 C.3       1 SUB1        0.058
      6 C3         48.5080  -38.7240   49.9700 C.3       1 SUB1        0.066
      7 C4         49.3260  -38.1390   48.8410 C.2       1 SUB1        0.184
      8 O3         50.5570  -38.0660   48.8950 O.2       1 SUB1       -0.396
      9 N2         48.6280  -37.7230   47.8030 N.am      1 SUB1       -0.264
     10 C5         49.2790  -37.1970   46.6100 C.3       1 SUB1        0.135
     11 C6         49.4630  -35.6890   46.5510 C.2       1 SUB1        0.203
     12 O4         48.5070  -34.9340   46.7340 O.2       1 SUB1       -0.394
     13 N3         50.6620  -35.2420   46.2130 N.am      1 SUB1       -0.285
     14 C7         50.9740  -33.8060   46.0610 C.3       1 SUB1        0.031
     15 C8         52.1870  -33.6750   45.1100 C.3       1 SUB1       -0.033
     16 C9         51.9670  -34.3030   43.7170 C.3       1 SUB1       -0.051
     17 C10        51.0420  -33.5000   42.7770 C.3       1 SUB1       -0.051
     18 C11        50.8080  -34.1630   41.3970 C.3       1 SUB1       -0.027
     19 C12        49.5550  -35.0600   41.2300 C.3       1 SUB1        0.048
     20 N4         49.5110  -36.1720   42.1950 N.pl3     1 SUB1       -0.275
     21 C13        48.8780  -38.0780   51.3260 C.3       1 SUB1       -0.029
     22 C14        48.3890  -36.6150   51.4910 C.3       1 SUB1       -0.044
     23 C15        46.8610  -36.4940   51.3370 C.3       1 SUB1       -0.062
     24 C16        48.7840  -36.1460   52.8970 C.3       1 SUB1       -0.062
     25 C17        48.4360  -37.7410   45.4080 C.3       1 SUB1        0.004
     26 C18        49.0240  -37.3630   44.0980 C.2       1 SUB1       -0.042
     27 C19        48.7600  -36.1950   43.3410 C.2       1 SUB1        0.020
     28 C20        49.9890  -38.0740   43.3560 C.ar      1 SUB1       -0.021
     29 C21        50.2680  -37.3070   42.1780 C.ar      1 SUB1        0.063
     30 C22        50.6390  -39.2930   43.5890 C.ar      1 SUB1       -0.075
     31 C23        51.1970  -37.7840   41.2510 C.ar      1 SUB1       -0.044
     32 C24        51.5690  -39.7590   42.6520 C.ar      1 SUB1       -0.079
     33 C25        51.8400  -39.0080   41.4950 C.ar      1 SUB1       -0.077
     34 H31        49.5998  -41.4892   52.0304 H         1 SUB1        0.222
     35 H41        48.2868  -42.3671   53.6365 H         1 SUB1        0.249
     36 H51        48.4949  -40.6072   48.8760 H         1 SUB1        0.053
     37 H52        49.8476  -40.4397   50.0460 H         1 SUB1        0.053
     38 H61        47.4388  -38.5368   49.7920 H         1 SUB1        0.056
     39 H91        47.6296  -37.7694   47.8349 H         1 SUB1        0.188
     40 H101       50.2868  -37.6347   46.5575 H         1 SUB1        0.082
     41 H131       51.3910  -35.9076   46.0530 H         1 SUB1        0.185
     42 H141       51.2205  -33.3723   47.0414 H         1 SUB1        0.052
     43 H142       50.1075  -33.2794   45.6345 H         1 SUB1        0.052
     44 H151       53.0494  -34.1705   45.5799 H         1 SUB1        0.029
     45 H152       52.4068  -32.6056   44.9759 H         1 SUB1        0.029
     46 H161       51.5263  -35.3009   43.8584 H         1 SUB1        0.027
     47 H162       52.9476  -34.4011   43.2284 H         1 SUB1        0.027
     48 H171       51.4931  -32.5104   42.6120 H         1 SUB1        0.027
     49 H172       50.0669  -33.3807   43.2720 H         1 SUB1        0.027
     50 H181       51.6884  -34.7851   41.1782 H         1 SUB1        0.029
     51 H182       50.7353  -33.3559   40.6532 H         1 SUB1        0.029
     52 H191       49.5564  -35.4785   40.2127 H         1 SUB1        0.060
     53 H192       48.6580  -34.4389   41.3697 H         1 SUB1        0.060
     54 H211       49.9735  -38.0882   51.4249 H         1 SUB1        0.030
     55 H212       48.4316  -38.6830   52.1290 H         1 SUB1        0.030
     56 H221       48.8766  -35.9824   50.7347 H         1 SUB1        0.030
     57 H231       46.5621  -35.4427   51.4615 H         1 SUB1        0.023
     58 H232       46.3654  -37.1092   52.1025 H         1 SUB1        0.023
     59 H233       46.5644  -36.8436   50.3371 H         1 SUB1        0.023
     60 H241       49.8742  -36.2282   53.0181 H         1 SUB1        0.023
     61 H242       48.2832  -36.7751   53.6476 H         1 SUB1        0.023
     62 H243       48.4779  -35.0983   53.0336 H         1 SUB1        0.023
     63 H251       47.4185  -37.3281   45.4725 H         1 SUB1        0.040
     64 H252       48.3914  -38.8381   45.4736 H         1 SUB1        0.040
     65 H271       48.0539  -35.4184   43.6313 H         1 SUB1        0.080
     66 H301       50.4247  -39.8677   44.4828 H         1 SUB1        0.054
     67 H311       51.4189  -37.2165   40.3545 H         1 SUB1        0.054
     68 H321       52.0807  -40.7000   42.8189 H         1 SUB1        0.051
     69 H331       52.5604  -39.3817   40.7763 H         1 SUB1        0.053
@<TRIPOS>BOND
     1    1    5 1  
     2    1    3 am 
     3    1    2 2  
     4    3    4 1  
     5    5    6 1  
     6    6   21 1  
     7    6    7 1  
     8    7    9 am 
     9    7    8 2  
    10    9   10 1  
    11   10   25 1  
    12   10   11 1  
    13   11   13 am 
    14   11   12 2  
    15   13   14 1  
    16   14   15 1  
    17   15   16 1  
    18   16   17 1  
    19   17   18 1  
    20   18   19 1  
    21   19   20 1  
    22   20   29 1  
    23   20   27 1  
    24   27   26 2  
    25   26   28 1  
    26   26   25 1  
    27   28   30 ar 
    28   28   29 ar 
    29   29   31 ar 
    30   31   33 ar 
    31   33   32 ar 
    32   32   30 ar 
    33   21   22 1  
    34   22   24 1  
    35   22   23 1  
    36    3   34 1  
    37    4   35 1  
    38    5   36 1  
    39    5   37 1  
    40    6   38 1  
    41    9   39 1  
    42   10   40 1  
    43   13   41 1  
    44   14   42 1  
    45   14   43 1  
    46   15   44 1  
    47   15   45 1  
    48   16   46 1  
    49   16   47 1  
    50   17   48 1  
    51   17   49 1  
    52   18   50 1  
    53   18   51 1  
    54   19   52 1  
    55   19   53 1  
    56   21   54 1  
    57   21   55 1  
    58   22   56 1  
    59   23   57 1  
    60   23   58 1  
    61   23   59 1  
    62   24   60 1  
    63   24   61 1  
    64   24   62 1  
    65   25   63 1  
    66   25   64 1  
    67   27   65 1  
    68   30   66 1  
    69   31   67 1  
    70   32   68 1  
    71   33   69 1  
@<TRIPOS>SUBSTRUCTURE
     1 SUB1        1 GROUP

