### 
### Created by X-TOOL on Mon Oct 24 22:47:53 2005
### 

@<TRIPOS>MOLECULE
1ps3_ligand
   28    29     1     0     0
SMALL
GAST_HUCK


@<TRIPOS>ATOM
      1 C4         31.4730   66.7250    6.8040 C.3       1 SUB1        0.109
      2 O4         31.7420   67.6100    5.7130 O.3       1 SUB1       -0.387
      3 C3         32.6900   66.7920    7.8050 C.3       1 SUB1        0.113
      4 O3         33.8510   66.3060    7.1450 O.3       1 SUB1       -0.386
      5 C2         32.5080   66.1550    9.2240 C.3       1 SUB1        0.128
      6 O2         33.2470   65.3230    9.6780 O.3       1 SUB1       -0.385
      7 C1         30.9360   65.5550    9.3520 C.3       1 SUB1        0.160
      8 N9         30.6120   65.4940   10.7760 N.am      1 SUB1       -0.249
      9 C8         29.6480   66.3270   11.0980 C.2       1 SUB1        0.287
     10 O8         29.2090   66.4430   12.2430 O.2       1 SUB1       -0.358
     11 C7         29.2300   67.0570    9.8380 C.2       1 SUB1        0.289
     12 O7         28.3440   67.9250    9.7440 O.2       1 SUB1       -0.358
     13 N          30.0150   66.5810    8.8480 N.am      1 SUB1       -0.227
     14 C5         30.0950   67.1610    7.4490 C.3       1 SUB1        0.100
     15 C6         28.9260   66.6580    6.5580 C.3       1 SUB1        0.070
     16 O6         27.6460   66.9110    7.1600 O.3       1 SUB1       -0.393
     17 H11        31.3655   65.6931    6.4387 H         1 SUB1        0.064
     18 H21        32.5403   67.3382    5.2756 H         1 SUB1        0.210
     19 H31        32.8563   67.8602    8.0082 H         1 SUB1        0.065
     20 H41        34.0295   66.8445    6.3830 H         1 SUB1        0.210
     21 H51        32.5809   67.0044    9.9190 H         1 SUB1        0.067
     22 H61        32.9510   65.0784   10.5470 H         1 SUB1        0.210
     23 H71        30.8099   64.5936    8.8326 H         1 SUB1        0.086
     24 H81        31.0698   64.8898   11.4281 H         1 SUB1        0.189
     25 H141       30.0375   68.2581    7.5028 H         1 SUB1        0.061
     26 H151       28.9600   67.1772    5.5889 H         1 SUB1        0.058
     27 H152       29.0273   65.5733    6.4061 H         1 SUB1        0.058
     28 H161       27.5968   66.4637    7.9967 H         1 SUB1        0.209
@<TRIPOS>BOND
     1    1    2 1  
     2    1    3 1  
     3    1   14 1  
     4    3    4 1  
     5    3    5 1  
     6    5    6 1  
     7    5    7 1  
     8    7    8 1  
     9    7   13 1  
    10    8    9 am 
    11    9   10 2  
    12    9   11 1  
    13   11   12 2  
    14   11   13 am 
    15   13   14 1  
    16   14   15 1  
    17   15   16 1  
    18    1   17 1  
    19    2   18 1  
    20    3   19 1  
    21    4   20 1  
    22    5   21 1  
    23    6   22 1  
    24    7   23 1  
    25    8   24 1  
    26   14   25 1  
    27   15   26 1  
    28   15   27 1  
    29   16   28 1  
@<TRIPOS>SUBSTRUCTURE
     1 SUB1        1 GROUP

