### 
### Created by X-TOOL on Sun Jun  3 12:06:01 2007
### 

@<TRIPOS>MOLECULE
2f01_ligand
   31    32     1     0     0
SMALL
GAST_HUCK


@<TRIPOS>ATOM
      1 C11        32.7710   18.1440   14.0480 C.2       1 SUB1        0.345
      2 O11        33.7020   17.4540   13.5160 O.2       1 SUB1       -0.262
      3 O12        32.7210   19.4450   13.8670 O.2       1 SUB1       -0.262
      4 C10        31.7790   17.4910   14.9420 C.3       1 SUB1        0.060
      5 C9         31.3320   16.1360   14.5750 C.3       1 SUB1       -0.036
      6 C8         30.5270   16.1480   13.2710 C.3       1 SUB1       -0.050
      7 C7         30.1960   14.7500   12.7940 C.3       1 SUB1       -0.039
      8 C2         29.1720   14.6210   11.7530 C.3       1 SUB1        0.030
      9 S1         27.6100   15.2160   11.7380 S.3       1 SUB1       -0.153
     10 C6         27.1730   14.6500   10.1760 C.3       1 SUB1        0.019
     11 C5         27.8700   13.2980   10.0920 C.3       1 SUB1        0.075
     12 N1         26.9810   12.2330   10.5690 N.am      1 SUB1       -0.267
     13 C3         27.5310   11.6360   11.6660 C.2       1 SUB1        0.258
     14 O3         26.9880   10.6820   12.2550 O.2       1 SUB1       -0.401
     15 N2         28.7180   12.1670   11.9760 N.am      1 SUB1       -0.267
     16 C4         29.0700   13.2600   11.0360 C.3       1 SUB1        0.078
     17 H          30.8879   18.1175   14.9031 H         1 SUB1        0.048
     18 H          32.2735   17.3882   15.9079 H         1 SUB1        0.048
     19 H          30.6946   15.7535   15.3722 H         1 SUB1        0.028
     20 H          32.2112   15.5074   14.4337 H         1 SUB1        0.028
     21 H          31.1289   16.6356   12.5041 H         1 SUB1        0.027
     22 H          29.5909   16.6756   13.4539 H         1 SUB1        0.027
     23 H          29.8001   14.2268   13.6644 H         1 SUB1        0.028
     24 H          31.1150   14.3625   12.3542 H         1 SUB1        0.028
     25 H          29.7370   15.4419   11.3114 H         1 SUB1        0.043
     26 H          27.4761   15.3309    9.3806 H         1 SUB1        0.040
     27 H          26.0939   14.5773   10.0404 H         1 SUB1        0.040
     28 H          28.1597   13.1555    9.0509 H         1 SUB1        0.058
     29 H          26.0887   11.9779   10.1457 H         1 SUB1        0.185
     30 H          29.3030   11.8620   12.7539 H         1 SUB1        0.185
     31 H          30.0319   13.0879   10.5530 H         1 SUB1        0.059
@<TRIPOS>BOND
     1    1    2 2  
     2    1    3 2  
     3    1    4 1  
     4    4    5 1  
     5    5    6 1  
     6    6    7 1  
     7    7    8 1  
     8    8    9 1  
     9    8   16 1  
    10    9   10 1  
    11   10   11 1  
    12   11   12 1  
    13   11   16 1  
    14   12   13 am 
    15   13   14 2  
    16   13   15 am 
    17   15   16 1  
    18    4   17 1  
    19    4   18 1  
    20    5   19 1  
    21    5   20 1  
    22    6   21 1  
    23    6   22 1  
    24    7   23 1  
    25    7   24 1  
    26    8   25 1  
    27   10   26 1  
    28   10   27 1  
    29   11   28 1  
    30   12   29 1  
    31   15   30 1  
    32   16   31 1  
@<TRIPOS>SUBSTRUCTURE
     1 SUB1        1 GROUP

