2f01_ligand
  -I-interpret- 

 31 32  0  0  0  0  0  0  0  0999 V2000
   32.7710   18.1440   14.0480 C   0  0  0  0  0
   33.7020   17.4540   13.5160 O   0  0  0  0  0
   32.7210   19.4450   13.8670 O   0  5  0  0  0
   31.7790   17.4910   14.9420 C   0  0  0  0  0
   31.3320   16.1360   14.5750 C   0  0  0  0  0
   30.5270   16.1480   13.2710 C   0  0  0  0  0
   30.1960   14.7500   12.7940 C   0  0  0  0  0
   29.1720   14.6210   11.7530 C   0  0  0  0  0
   27.6100   15.2160   11.7380 S   0  0  0  0  0
   27.1730   14.6500   10.1760 C   0  0  0  0  0
   27.8700   13.2980   10.0920 C   0  0  0  0  0
   26.9810   12.2330   10.5690 N   0  0  0  0  0
   27.5310   11.6360   11.6660 C   0  0  0  0  0
   26.9880   10.6820   12.2550 O   0  0  0  0  0
   28.7180   12.1670   11.9760 N   0  0  0  0  0
   29.0700   13.2600   11.0360 C   0  0  0  0  0
   30.8879   18.1175   14.9031 H   0  0  0  0  0
   32.2735   17.3882   15.9079 H   0  0  0  0  0
   30.6946   15.7535   15.3722 H   0  0  0  0  0
   32.2112   15.5074   14.4337 H   0  0  0  0  0
   31.1289   16.6356   12.5041 H   0  0  0  0  0
   29.5909   16.6756   13.4539 H   0  0  0  0  0
   29.8001   14.2268   13.6644 H   0  0  0  0  0
   31.1150   14.3625   12.3542 H   0  0  0  0  0
   29.7370   15.4419   11.3114 H   0  0  0  0  0
   27.4761   15.3309    9.3806 H   0  0  0  0  0
   26.0939   14.5773   10.0404 H   0  0  0  0  0
   28.1597   13.1555    9.0509 H   0  0  0  0  0
   26.0887   11.9779   10.1457 H   0  0  0  0  0
   29.3030   11.8620   12.7539 H   0  0  0  0  0
   30.0319   13.0879   10.5530 H   0  0  0  0  0
  1  2  2  0  0  0
  1  3  1  0  0  0
  1  4  1  0  0  0
  4  5  1  0  0  0
  5  6  1  0  0  0
  6  7  1  0  0  0
  7  8  1  0  0  0
  8  9  1  0  0  0
  8 16  1  0  0  0
  9 10  1  0  0  0
 10 11  1  0  0  0
 11 12  1  0  0  0
 11 16  1  0  0  0
 12 13  1  0  0  0
 13 14  2  0  0  0
 13 15  1  0  0  0
 15 16  1  0  0  0
  4 17  1  0  0  0
  4 18  1  0  0  0
  5 19  1  0  0  0
  5 20  1  0  0  0
  6 21  1  0  0  0
  6 22  1  0  0  0
  7 23  1  0  0  0
  7 24  1  0  0  0
  8 25  1  0  0  0
 10 26  1  0  0  0
 10 27  1  0  0  0
 11 28  1  0  0  0
 12 29  1  0  0  0
 15 30  1  0  0  0
 16 31  1  0  0  0
M  END
$$$$
