### 
### Created by X-TOOL on Tue Oct 25 00:51:21 2005
### 

@<TRIPOS>MOLECULE
1c4v_ligand
   76    80     1     0     0
SMALL
GAST_HUCK


@<TRIPOS>ATOM
      1 H171       16.0315  -10.8647   20.5896 H         1 SUB1        0.185
      2 H181       14.0650  -12.3009   18.7417 H         1 SUB1        0.052
      3 H182       14.1131  -10.5336   19.0598 H         1 SUB1        0.052
      4 H191        9.5282  -12.9346   24.9393 H         1 SUB1        0.192
      5 H192       10.3718  -13.8705   23.6763 H         1 SUB1        0.192
      6 H201       11.1322   -9.8851   24.1621 H         1 SUB1        0.192
      7 H202        9.8458  -10.6714   25.1158 H         1 SUB1        0.192
      8 H221       12.2639  -12.0500   19.9947 H         1 SUB1        0.032
      9 H231       14.5078  -12.2975   22.1169 H         1 SUB1        0.027
     10 H232       14.0928  -13.6199   20.9742 H         1 SUB1        0.027
     11 H241       12.8586  -13.6870   23.1232 H         1 SUB1        0.031
     12 H242       11.8306  -13.5937   21.6532 H         1 SUB1        0.031
     13 H251       12.6437  -11.6989   23.6036 H         1 SUB1        0.087
     14 H261       12.7246   -9.9778   23.0548 H         1 SUB1        0.031
     15 H262       11.2004  -10.0262   22.1055 H         1 SUB1        0.031
     16 H271       12.3114   -9.6808   20.3935 H         1 SUB1        0.027
     17 N9         15.6250  -11.6940   20.2060 N.am      1 SUB1       -0.284
     18 C1         14.1860  -11.5310   19.5180 C.3       1 SUB1        0.034
     19 N10        10.2180  -12.9830   24.1760 N.pl3     1 SUB1       -0.205
     20 N11        10.6020  -10.7300   24.4190 N.pl3     1 SUB1       -0.205
     21 C8         10.8990  -11.9170   23.8410 C.cat     1 SUB1        0.282
     22 C2         13.1850  -11.6740   20.4640 C.3       1 SUB1       -0.021
     23 C7         13.7120  -12.7260   21.4900 C.3       1 SUB1       -0.044
     24 C6         12.5460  -13.0470   22.2850 C.3       1 SUB1       -0.004
     25 C5         11.8540  -11.8170   22.8470 C.3       1 SUB1        0.149
     26 C4         12.1720  -10.5150   22.2700 C.3       1 SUB1       -0.004
     27 C3         12.9000  -10.2960   21.0900 C.3       1 SUB1       -0.044
     28 C17        19.7730  -14.6910   20.1140 C.3       1 SUB1        0.086
     29 N18        19.0050  -14.8790   21.2240 N.am      1 SUB1       -0.133
     30 C20        18.7480  -16.0820   21.7820 C.2       1 SUB1        0.317
     31 O20        19.1860  -17.2120   21.6330 O.2       1 SUB1       -0.390
     32 N21        17.8360  -15.8460   22.6800 N.am      1 SUB1       -0.149
     33 C22        17.4990  -14.5170   22.6330 C.2       1 SUB1        0.319
     34 O22        16.7080  -14.0560   23.3090 O.2       1 SUB1       -0.390
     35 N19        18.2500  -13.9370   21.7670 N.am      1 SUB1       -0.119
     36 C13        17.8250  -12.8060   20.9100 C.3       1 SUB1        0.166
     37 C14        18.8360  -12.4240   20.0590 C.2       1 SUB1       -0.061
     38 C15        19.5620  -13.2920   19.4610 C.2       1 SUB1       -0.055
     39 C12        16.3400  -12.8150   20.3230 C.2       1 SUB1        0.208
     40 C16        20.5540  -12.7780   18.6040 C.3       1 SUB1       -0.038
     41 O12        15.7340  -14.0720   20.0910 O.2       1 SUB1       -0.393
     42 C23        17.3950  -16.8760   23.5280 C.3       1 SUB1        0.081
     43 C24        18.0830  -16.5670   24.9160 C.3       1 SUB1        0.050
     44 C28        22.1980  -14.6010   25.6620 C.ar      1 SUB1       -0.068
     45 C29        21.1550  -13.9530   26.0430 C.ar      1 SUB1       -0.068
     46 C30        19.8110  -14.5350   25.7810 C.ar      1 SUB1       -0.058
     47 C25        19.4720  -15.8040   25.1090 C.ar      1 SUB1       -0.027
     48 C26        20.5370  -16.4480   24.7200 C.ar      1 SUB1       -0.058
     49 C27        21.8850  -15.8620   24.9490 C.ar      1 SUB1       -0.068
     50 C34        17.7030  -19.2430   28.1470 C.ar      1 SUB1       -0.068
     51 C35        18.5600  -19.6230   26.9910 C.ar      1 SUB1       -0.068
     52 C36        18.5770  -18.7990   25.9180 C.ar      1 SUB1       -0.058
     53 C31        17.7950  -17.5990   25.9330 C.ar      1 SUB1       -0.027
     54 C32        16.9110  -17.2940   27.0850 C.ar      1 SUB1       -0.058
     55 C33        16.8870  -18.1090   28.2000 C.ar      1 SUB1       -0.068
     56 H272       13.8462   -9.7848   21.3211 H         1 SUB1        0.027
     57 H281       19.5180  -15.4652   19.3754 H         1 SUB1        0.069
     58 H282       20.8310  -14.7897   20.3983 H         1 SUB1        0.069
     59 H361       17.7742  -11.9693   21.6223 H         1 SUB1        0.089
     60 H371       19.0220  -11.3642   19.8911 H         1 SUB1        0.029
     61 H401       20.2436  -11.7891   18.2355 H         1 SUB1        0.038
     62 H402       20.6919  -13.4600   17.7521 H         1 SUB1        0.038
     63 H403       21.5013  -12.6832   19.1549 H         1 SUB1        0.038
     64 H421       17.7134  -17.8572   23.1461 H         1 SUB1        0.062
     65 H422       16.2994  -16.8580   23.6245 H         1 SUB1        0.062
     66 H431       17.4154  -15.7601   25.2524 H         1 SUB1        0.064
     67 H441       23.2098  -14.2578   25.8448 H         1 SUB1        0.056
     68 H451       21.2532  -12.9983   26.5469 H         1 SUB1        0.060
     69 H461       18.9688  -13.9487   26.1303 H         1 SUB1        0.056
     70 H481       20.4401  -17.4100   24.2299 H         1 SUB1        0.056
     71 H491       22.7279  -16.4162   24.5522 H         1 SUB1        0.060
     72 H501       17.7122  -19.8947   29.0132 H         1 SUB1        0.056
     73 H511       19.1517  -20.5311   27.0082 H         1 SUB1        0.060
     74 H521       19.1794  -19.0457   25.0513 H         1 SUB1        0.056
     75 H541       16.2739  -16.4177   27.0511 H         1 SUB1        0.056
     76 H551       16.2726  -17.8830   29.0640 H         1 SUB1        0.060
@<TRIPOS>BOND
     1   17    1 1  
     2   18    2 1  
     3   18    3 1  
     4   19    4 1  
     5   19    5 1  
     6   20    6 1  
     7   20    7 1  
     8   22    8 1  
     9   23    9 1  
    10   23   10 1  
    11   24   11 1  
    12   24   12 1  
    13   25   13 1  
    14   26   14 1  
    15   26   15 1  
    16   27   16 1  
    17   17   39 am 
    18   18   17 1  
    19   22   18 1  
    20   22   27 1  
    21   23   22 1  
    22   24   23 1  
    23   25   24 1  
    24   25   26 1  
    25   21   25 1  
    26   21   20 1  
    27   21   19 1  
    28   27   26 1  
    29   39   41 2  
    30   39   36 1  
    31   36   37 1  
    32   36   35 1  
    33   35   33 am 
    34   35   29 1  
    35   29   30 am 
    36   29   28 1  
    37   28   38 1  
    38   38   40 1  
    39   38   37 2  
    40   30   32 am 
    41   30   31 2  
    42   32   42 1  
    43   32   33 am 
    44   33   34 2  
    45   42   43 1  
    46   43   53 1  
    47   43   47 1  
    48   47   48 ar 
    49   47   46 ar 
    50   46   45 ar 
    51   45   44 ar 
    52   44   49 ar 
    53   49   48 ar 
    54   53   54 ar 
    55   53   52 ar 
    56   52   51 ar 
    57   51   50 ar 
    58   50   55 ar 
    59   55   54 ar 
    60   27   56 1  
    61   28   57 1  
    62   28   58 1  
    63   36   59 1  
    64   37   60 1  
    65   40   61 1  
    66   40   62 1  
    67   40   63 1  
    68   42   64 1  
    69   42   65 1  
    70   43   66 1  
    71   44   67 1  
    72   45   68 1  
    73   46   69 1  
    74   48   70 1  
    75   49   71 1  
    76   50   72 1  
    77   51   73 1  
    78   52   74 1  
    79   54   75 1  
    80   55   76 1  
@<TRIPOS>SUBSTRUCTURE
     1 SUB1        1 GROUP

