1c4v_ligand
  -I-interpret- 

 76 80  0  0  0  0  0  0  0  0999 V2000
   16.0315  -10.8647   20.5896 H   0  0  0  0  0
   14.0650  -12.3009   18.7417 H   0  0  0  0  0
   14.1131  -10.5336   19.0598 H   0  0  0  0  0
    9.5282  -12.9346   24.9393 H   0  0  0  0  0
   10.3718  -13.8705   23.6763 H   0  0  0  0  0
   11.1322   -9.8851   24.1621 H   0  0  0  0  0
    9.8458  -10.6714   25.1158 H   0  0  0  0  0
   12.2639  -12.0500   19.9947 H   0  0  0  0  0
   14.5078  -12.2975   22.1169 H   0  0  0  0  0
   14.0928  -13.6199   20.9742 H   0  0  0  0  0
   12.8586  -13.6870   23.1232 H   0  0  0  0  0
   11.8306  -13.5937   21.6532 H   0  0  0  0  0
   12.6437  -11.6989   23.6036 H   0  0  0  0  0
   12.7246   -9.9778   23.0548 H   0  0  0  0  0
   11.2004  -10.0262   22.1055 H   0  0  0  0  0
   12.3114   -9.6808   20.3935 H   0  0  0  0  0
   15.6250  -11.6940   20.2060 N   0  0  0  0  0
   14.1860  -11.5310   19.5180 C   0  0  0  0  0
   10.2180  -12.9830   24.1760 N   0  0  0  0  0
   10.6020  -10.7300   24.4190 N   0  0  0  0  0
   10.8990  -11.9170   23.8410 C   0  3  0  0  0
   13.1850  -11.6740   20.4640 C   0  0  0  0  0
   13.7120  -12.7260   21.4900 C   0  0  0  0  0
   12.5460  -13.0470   22.2850 C   0  0  0  0  0
   11.8540  -11.8170   22.8470 C   0  0  0  0  0
   12.1720  -10.5150   22.2700 C   0  0  0  0  0
   12.9000  -10.2960   21.0900 C   0  0  0  0  0
   19.7730  -14.6910   20.1140 C   0  0  0  0  0
   19.0050  -14.8790   21.2240 N   0  0  0  0  0
   18.7480  -16.0820   21.7820 C   0  0  0  0  0
   19.1860  -17.2120   21.6330 O   0  0  0  0  0
   17.8360  -15.8460   22.6800 N   0  0  0  0  0
   17.4990  -14.5170   22.6330 C   0  0  0  0  0
   16.7080  -14.0560   23.3090 O   0  0  0  0  0
   18.2500  -13.9370   21.7670 N   0  0  0  0  0
   17.8250  -12.8060   20.9100 C   0  0  0  0  0
   18.8360  -12.4240   20.0590 C   0  0  0  0  0
   19.5620  -13.2920   19.4610 C   0  0  0  0  0
   16.3400  -12.8150   20.3230 C   0  0  0  0  0
   20.5540  -12.7780   18.6040 C   0  0  0  0  0
   15.7340  -14.0720   20.0910 O   0  0  0  0  0
   17.3950  -16.8760   23.5280 C   0  0  0  0  0
   18.0830  -16.5670   24.9160 C   0  0  0  0  0
   22.1980  -14.6010   25.6620 C   0  0  0  0  0
   21.1550  -13.9530   26.0430 C   0  0  0  0  0
   19.8110  -14.5350   25.7810 C   0  0  0  0  0
   19.4720  -15.8040   25.1090 C   0  0  0  0  0
   20.5370  -16.4480   24.7200 C   0  0  0  0  0
   21.8850  -15.8620   24.9490 C   0  0  0  0  0
   17.7030  -19.2430   28.1470 C   0  0  0  0  0
   18.5600  -19.6230   26.9910 C   0  0  0  0  0
   18.5770  -18.7990   25.9180 C   0  0  0  0  0
   17.7950  -17.5990   25.9330 C   0  0  0  0  0
   16.9110  -17.2940   27.0850 C   0  0  0  0  0
   16.8870  -18.1090   28.2000 C   0  0  0  0  0
   13.8462   -9.7848   21.3211 H   0  0  0  0  0
   19.5180  -15.4652   19.3754 H   0  0  0  0  0
   20.8310  -14.7897   20.3983 H   0  0  0  0  0
   17.7742  -11.9693   21.6223 H   0  0  0  0  0
   19.0220  -11.3642   19.8911 H   0  0  0  0  0
   20.2436  -11.7891   18.2355 H   0  0  0  0  0
   20.6919  -13.4600   17.7521 H   0  0  0  0  0
   21.5013  -12.6832   19.1549 H   0  0  0  0  0
   17.7134  -17.8572   23.1461 H   0  0  0  0  0
   16.2994  -16.8580   23.6245 H   0  0  0  0  0
   17.4154  -15.7601   25.2524 H   0  0  0  0  0
   23.2098  -14.2578   25.8448 H   0  0  0  0  0
   21.2532  -12.9983   26.5469 H   0  0  0  0  0
   18.9688  -13.9487   26.1303 H   0  0  0  0  0
   20.4401  -17.4100   24.2299 H   0  0  0  0  0
   22.7279  -16.4162   24.5522 H   0  0  0  0  0
   17.7122  -19.8947   29.0132 H   0  0  0  0  0
   19.1517  -20.5311   27.0082 H   0  0  0  0  0
   19.1794  -19.0457   25.0513 H   0  0  0  0  0
   16.2739  -16.4177   27.0511 H   0  0  0  0  0
   16.2726  -17.8830   29.0640 H   0  0  0  0  0
 17  1  1  0  0  0
 18  2  1  0  0  0
 18  3  1  0  0  0
 19  4  1  0  0  0
 19  5  1  0  0  0
 20  6  1  0  0  0
 20  7  1  0  0  0
 22  8  1  0  0  0
 23  9  1  0  0  0
 23 10  1  0  0  0
 24 11  1  0  0  0
 24 12  1  0  0  0
 25 13  1  0  0  0
 26 14  1  0  0  0
 26 15  1  0  0  0
 27 16  1  0  0  0
 17 39  1  0  0  0
 18 17  1  0  0  0
 22 18  1  0  0  0
 22 27  1  0  0  0
 23 22  1  0  0  0
 24 23  1  0  0  0
 25 24  1  0  0  0
 25 26  1  0  0  0
 21 25  1  0  0  0
 21 20  1  0  0  0
 21 19  1  0  0  0
 27 26  1  0  0  0
 39 41  2  0  0  0
 39 36  1  0  0  0
 36 37  1  0  0  0
 36 35  1  0  0  0
 35 33  1  0  0  0
 35 29  1  0  0  0
 29 30  1  0  0  0
 29 28  1  0  0  0
 28 38  1  0  0  0
 38 40  1  0  0  0
 38 37  2  0  0  0
 30 32  1  0  0  0
 30 31  2  0  0  0
 32 42  1  0  0  0
 32 33  1  0  0  0
 33 34  2  0  0  0
 42 43  1  0  0  0
 43 53  1  0  0  0
 43 47  1  0  0  0
 47 48  4  0  0  0
 47 46  4  0  0  0
 46 45  4  0  0  0
 45 44  4  0  0  0
 44 49  4  0  0  0
 49 48  4  0  0  0
 53 54  4  0  0  0
 53 52  4  0  0  0
 52 51  4  0  0  0
 51 50  4  0  0  0
 50 55  4  0  0  0
 55 54  4  0  0  0
 27 56  1  0  0  0
 28 57  1  0  0  0
 28 58  1  0  0  0
 36 59  1  0  0  0
 37 60  1  0  0  0
 40 61  1  0  0  0
 40 62  1  0  0  0
 40 63  1  0  0  0
 42 64  1  0  0  0
 42 65  1  0  0  0
 43 66  1  0  0  0
 44 67  1  0  0  0
 45 68  1  0  0  0
 46 69  1  0  0  0
 48 70  1  0  0  0
 49 71  1  0  0  0
 50 72  1  0  0  0
 51 73  1  0  0  0
 52 74  1  0  0  0
 54 75  1  0  0  0
 55 76  1  0  0  0
M  END
$$$$
