### 
### Created by X-TOOL on Mon Oct 24 23:56:47 2005
### 

@<TRIPOS>MOLECULE
1k1n_ligand
   81    83     1     0     0
SMALL
GAST_HUCK


@<TRIPOS>ATOM
      1 C51        -1.1610   15.9210   18.7940 C.ar      1 SUB1       -0.038
      2 C52        -2.2510   16.2390   17.9570 C.ar      1 SUB1       -0.056
      3 C53        -2.4960   15.4860   16.8130 C.ar      1 SUB1       -0.014
      4 C55        -0.6290   14.0620   17.3350 C.ar      1 SUB1       -0.014
      5 C56        -0.3600   14.8220   18.4810 C.ar      1 SUB1       -0.056
      6 C54        -1.7020   14.3660   16.4650 C.ar      1 SUB1        0.179
      7 C57        -1.9850   13.5460   15.2290 C.cat     1 SUB1        0.312
      8 N58        -2.6060   14.0610   14.1910 N.pl3     1 SUB1       -0.201
      9 N59        -1.6020   12.2830   15.1330 N.pl3     1 SUB1       -0.201
     10 C44        -0.8830   16.7710   20.0210 C.3       1 SUB1        0.021
     11 C41         0.1430   17.8700   19.6190 C.3       1 SUB1        0.140
     12 N40        -0.5090   18.8490   18.7710 N.am      1 SUB1       -0.262
     13 C42         0.5480   18.6580   20.8480 C.2       1 SUB1        0.206
     14 O43        -0.2610   18.7330   21.7610 O.2       1 SUB1       -0.394
     15 N60         1.7630   19.2570   20.9060 N.am      1 SUB1       -0.271
     16 C61         2.1020   20.0820   22.0650 C.3       1 SUB1        0.034
     17 C62         2.1600   21.5440   21.6280 C.3       1 SUB1       -0.032
     18 C63         3.1630   21.6850   20.4460 C.3       1 SUB1       -0.049
     19 C64         2.6840   20.8010   19.2710 C.3       1 SUB1       -0.032
     20 C65         2.6240   19.3280   19.7190 C.3       1 SUB1        0.034
     21 N23        -0.6380   20.4090   15.4420 N.am      1 SUB1       -0.225
     22 S20        -0.5480   21.9710   14.9630 S.o2      1 SUB1        0.059
     23 O21        -1.7860   22.5480   15.4320 O.2       1 SUB1       -0.154
     24 O22        -0.4330   21.9640   13.5300 O.2       1 SUB1       -0.154
     25 C11         0.9230   22.5860   15.6520 C.ar      1 SUB1        0.093
     26 C12         0.8790   23.6800   16.5800 C.ar      1 SUB1       -0.033
     27 C13         2.0660   24.1870   17.1710 C.ar      1 SUB1       -0.021
     28 C14         3.3110   23.6100   16.8580 C.ar      1 SUB1        0.079
     29 C15         3.3440   22.5220   15.9590 C.ar      1 SUB1       -0.043
     30 C16         2.1830   22.0070   15.3510 C.ar      1 SUB1       -0.041
     31 C17        -0.4370   24.3850   16.9880 C.3       1 SUB1       -0.036
     32 C18         2.0720   25.3710   18.1710 C.3       1 SUB1       -0.039
     33 C10         2.5000   20.8290   14.3960 C.3       1 SUB1       -0.036
     34 O11         4.4940   24.1220   17.4630 O.3       1 SUB1       -0.329
     35 C19         5.7750   23.4850   17.2280 C.3       1 SUB1        0.057
     36 C30        -1.0760   20.0720   16.7690 C.3       1 SUB1        0.137
     37 C31        -2.5130   19.5450   16.6440 C.3       1 SUB1        0.023
     38 C32        -3.3320   19.8250   17.8750 C.2       1 SUB1        0.032
     39 O33        -4.5130   19.4630   17.8290 O.co2     1 SUB1       -0.566
     40 O34        -2.8240   20.4280   18.8600 O.co2     1 SUB1       -0.566
     41 C35        -0.2230   19.0280   17.4520 C.2       1 SUB1        0.203
     42 O36         0.6400   18.4310   16.8340 O.2       1 SUB1       -0.394
     43 H21        -2.8990   17.0717   18.2056 H         1 SUB1        0.056
     44 H31        -3.3208   15.7654   16.1675 H         1 SUB1        0.065
     45 H41         0.0060   13.2133   17.1077 H         1 SUB1        0.065
     46 H51         0.4707   14.5562   19.1247 H         1 SUB1        0.056
     47 H81        -2.7874   13.4809   13.3594 H         1 SUB1        0.192
     48 H82        -2.9112   15.0446   14.2093 H         1 SUB1        0.192
     49 H91        -1.1115   11.8324   15.9187 H         1 SUB1        0.192
     50 H92        -1.7944   11.7505   14.2726 H         1 SUB1        0.192
     51 H101       -0.4648   16.1446   20.8227 H         1 SUB1        0.047
     52 H102       -1.8150   17.2395   20.3701 H         1 SUB1        0.047
     53 H111        1.0149   17.4201   19.1216 H         1 SUB1        0.082
     54 H121       -1.2130   19.4291   19.1808 H         1 SUB1        0.189
     55 H161        3.0807   19.7760   22.4631 H         1 SUB1        0.052
     56 H162        1.3347   19.9590   22.8435 H         1 SUB1        0.052
     57 H171        2.4944   22.1670   22.4706 H         1 SUB1        0.029
     58 H172        1.1610   21.8711   21.3039 H         1 SUB1        0.029
     59 H181        4.1624   21.3586   20.7694 H         1 SUB1        0.027
     60 H182        3.2070   22.7356   20.1230 H         1 SUB1        0.027
     61 H191        3.3863   20.8989   18.4300 H         1 SUB1        0.029
     62 H192        1.6829   21.1272   18.9526 H         1 SUB1        0.029
     63 H201        2.2033   18.7083   18.9134 H         1 SUB1        0.052
     64 H202        3.6343   18.9705   19.9671 H         1 SUB1        0.052
     65 H211       -0.3856   19.6809   14.8047 H         1 SUB1        0.171
     66 H291        4.2997   22.0656   15.7279 H         1 SUB1        0.041
     67 H311       -1.2833   23.9093   16.4708 H         1 SUB1        0.037
     68 H312       -0.3861   25.4474   16.7074 H         1 SUB1        0.037
     69 H313       -0.5770   24.2993   18.0757 H         1 SUB1        0.037
     70 H321        1.0422   25.7252   18.3260 H         1 SUB1        0.034
     71 H322        2.6843   26.1901   17.7658 H         1 SUB1        0.034
     72 H323        2.4936   25.0381   19.1309 H         1 SUB1        0.034
     73 H331        1.5664   20.4605   13.9459 H         1 SUB1        0.038
     74 H332        2.9796   20.0169   14.9621 H         1 SUB1        0.038
     75 H333        3.1790   21.1732   13.6019 H         1 SUB1        0.038
     76 H351        6.5594   24.0248   17.7788 H         1 SUB1        0.057
     77 H352        6.0026   23.5051   16.1520 H         1 SUB1        0.057
     78 H353        5.7350   22.4419   17.5750 H         1 SUB1        0.057
     79 H361       -1.0669   20.9827   17.3858 H         1 SUB1        0.079
     80 H371       -2.4784   18.4576   16.4818 H         1 SUB1        0.053
     81 H372       -2.9938   20.0293   15.7813 H         1 SUB1        0.053
@<TRIPOS>BOND
     1    1   10 1  
     2    1    5 ar 
     3    1    2 ar 
     4    2    3 ar 
     5    3    6 ar 
     6    6    4 ar 
     7    6    7 1  
     8    7    9 1  
     9    7    8 1  
    10    4    5 ar 
    11   10   11 1  
    12   11   13 1  
    13   11   12 1  
    14   12   41 am 
    15   41   42 2  
    16   41   36 1  
    17   36   37 1  
    18   36   21 1  
    19   21   22 1  
    20   22   25 1  
    21   22   24 2  
    22   22   23 2  
    23   25   30 ar 
    24   25   26 ar 
    25   26   31 1  
    26   26   27 ar 
    27   27   32 1  
    28   27   28 ar 
    29   28   34 1  
    30   28   29 ar 
    31   29   30 ar 
    32   30   33 1  
    33   34   35 1  
    34   37   38 1  
    35   38   40 2  
    36   38   39 2  
    37   13   15 am 
    38   13   14 2  
    39   15   20 1  
    40   15   16 1  
    41   16   17 1  
    42   17   18 1  
    43   18   19 1  
    44   19   20 1  
    45    2   43 1  
    46    3   44 1  
    47    4   45 1  
    48    5   46 1  
    49    8   47 1  
    50    8   48 1  
    51    9   49 1  
    52    9   50 1  
    53   10   51 1  
    54   10   52 1  
    55   11   53 1  
    56   12   54 1  
    57   16   55 1  
    58   16   56 1  
    59   17   57 1  
    60   17   58 1  
    61   18   59 1  
    62   18   60 1  
    63   19   61 1  
    64   19   62 1  
    65   20   63 1  
    66   20   64 1  
    67   21   65 1  
    68   29   66 1  
    69   31   67 1  
    70   31   68 1  
    71   31   69 1  
    72   32   70 1  
    73   32   71 1  
    74   32   72 1  
    75   33   73 1  
    76   33   74 1  
    77   33   75 1  
    78   35   76 1  
    79   35   77 1  
    80   35   78 1  
    81   36   79 1  
    82   37   80 1  
    83   37   81 1  
@<TRIPOS>SUBSTRUCTURE
     1 SUB1        1 GROUP

