### 
### Created by X-TOOL on Mon Oct 24 22:19:54 2005
### 

@<TRIPOS>MOLECULE
1gj8_ligand
   45    47     1     0     0
SMALL
GAST_HUCK


@<TRIPOS>ATOM
      1 H231       10.6526    2.5748   21.8990 H         1 SUB1        0.053
      2 H261        8.0098    3.4643   26.0811 H         1 SUB1        0.058
      3 H281        7.1725    0.3844   27.1817 H         1 SUB1        0.192
      4 H282        7.6971    2.0814   27.0151 H         1 SUB1        0.192
      5 H291        8.3399   -0.5592   24.0192 H         1 SUB1        0.192
      6 H292        7.4981   -1.0729   25.5059 H         1 SUB1        0.192
      7 H311        8.6044    5.9572   25.5466 H         1 SUB1        0.229
      8 H341        9.0904    7.7962   25.5385 H         1 SUB1        0.054
      9 H351        9.5706   10.1981   25.4061 H         1 SUB1        0.051
     10 H361       10.5621   11.1298   23.3493 H         1 SUB1        0.054
     11 H391       10.8112    6.1516   21.6726 H         1 SUB1        0.248
     12 H411       13.0885   10.6003   22.1650 H         1 SUB1        0.061
     13 H412       11.6533   11.6532   21.9236 H         1 SUB1        0.061
     14 H421       13.0973   12.4214   20.2663 H         1 SUB1        0.032
     15 H431       14.5553   10.9796   18.8709 H         1 SUB1        0.023
     16 H432       13.9434    9.5304   19.7379 H         1 SUB1        0.023
     17 H433       14.8878   10.7751   20.6242 H         1 SUB1        0.023
     18 H441       10.9129   11.7629   19.3228 H         1 SUB1        0.023
     19 H442       11.5855   10.1516   18.9010 H         1 SUB1        0.023
     20 H443       12.2348   11.6299   18.1139 H         1 SUB1        0.023
     21 C1          8.7020    1.9060   24.7210 C.ar      1 SUB1        0.207
     22 C2          9.5020    1.7010   23.5460 C.ar      1 SUB1        0.171
     23 C3         10.0890    2.7460   22.8090 C.ar      1 SUB1       -0.025
     24 C4          9.8940    3.9850   23.3270 C.ar      1 SUB1        0.027
     25 C5          9.1430    4.2220   24.4360 C.ar      1 SUB1        0.082
     26 C6          8.5610    3.2360   25.1760 C.ar      1 SUB1        0.014
     27 C7          8.0960    0.8660   25.4440 C.cat     1 SUB1        0.312
     28 N1          7.6220    1.1290   26.6300 N.pl3     1 SUB1       -0.201
     29 N2          7.9690   -0.3410   24.9550 N.pl3     1 SUB1       -0.201
     30 N3         10.2800    5.1330   22.9050 N.2       1 SUB1       -0.312
     31 N4          9.0730    5.4870   24.7590 N.pl3     1 SUB1       -0.253
     32 C8          9.7890    5.9750   23.7630 C.2       1 SUB1        0.132
     33 C1'        10.0240    7.3300   23.6610 C.ar      1 SUB1        0.057
     34 C2'         9.6070    8.1950   24.6730 C.ar      1 SUB1       -0.063
     35 C3'         9.8420    9.5420   24.5870 C.ar      1 SUB1       -0.076
     36 C4'        10.4300   10.0580   23.4430 C.ar      1 SUB1       -0.037
     37 C5'        10.8560    9.2200   22.4070 C.ar      1 SUB1        0.126
     38 C6'        10.6190    7.8690   22.5090 C.ar      1 SUB1        0.138
     39 O6'        11.0360    7.0530   21.4740 O.3       1 SUB1       -0.330
     40 O5'        11.4570    9.7000   21.2550 O.3       1 SUB1       -0.320
     41 C10        12.2690   10.8580   21.4780 C.3       1 SUB1        0.070
     42 C20        12.8550   11.3540   20.1570 C.3       1 SUB1       -0.019
     43 C30        14.1520   10.6070   19.8240 C.3       1 SUB1       -0.060
     44 C40        11.8260   11.2150   19.0470 C.3       1 SUB1       -0.060
     45 F2          9.7230    0.4740   23.0740 F         1 SUB1       -0.188
@<TRIPOS>BOND
     1   22   45 1  
     2   23    1 1  
     3   26    2 1  
     4   28    3 1  
     5   28    4 1  
     6   29    5 1  
     7   29    6 1  
     8   31    7 1  
     9   34    8 1  
    10   35    9 1  
    11   36   10 1  
    12   39   11 1  
    13   41   12 1  
    14   41   13 1  
    15   42   14 1  
    16   43   15 1  
    17   43   16 1  
    18   43   17 1  
    19   44   18 1  
    20   44   19 1  
    21   44   20 1  
    22   27   21 1  
    23   21   26 ar 
    24   21   22 ar 
    25   22   23 ar 
    26   23   24 ar 
    27   24   30 1  
    28   25   24 ar 
    29   25   31 1  
    30   26   25 ar 
    31   31   32 1  
    32   32   33 1  
    33   30   32 2  
    34   33   38 ar 
    35   33   34 ar 
    36   34   35 ar 
    37   35   36 ar 
    38   37   36 ar 
    39   37   40 1  
    40   38   37 ar 
    41   38   39 1  
    42   40   41 1  
    43   41   42 1  
    44   42   44 1  
    45   42   43 1  
    46   27   29 1  
    47   27   28 1  
@<TRIPOS>SUBSTRUCTURE
     1 SUB1        1 GROUP

