1gj8_ligand
  -I-interpret- 

 45 47  0  0  0  0  0  0  0  0999 V2000
   10.6526    2.5748   21.8990 H   0  0  0  0  0
    8.0098    3.4643   26.0811 H   0  0  0  0  0
    7.1725    0.3844   27.1817 H   0  0  0  0  0
    7.6971    2.0814   27.0151 H   0  0  0  0  0
    8.3399   -0.5592   24.0192 H   0  0  0  0  0
    7.4981   -1.0729   25.5059 H   0  0  0  0  0
    8.6044    5.9572   25.5466 H   0  0  0  0  0
    9.0904    7.7962   25.5385 H   0  0  0  0  0
    9.5706   10.1981   25.4061 H   0  0  0  0  0
   10.5621   11.1298   23.3493 H   0  0  0  0  0
   10.8112    6.1516   21.6726 H   0  0  0  0  0
   13.0885   10.6003   22.1650 H   0  0  0  0  0
   11.6533   11.6532   21.9236 H   0  0  0  0  0
   13.0973   12.4214   20.2663 H   0  0  0  0  0
   14.5553   10.9796   18.8709 H   0  0  0  0  0
   13.9434    9.5304   19.7379 H   0  0  0  0  0
   14.8878   10.7751   20.6242 H   0  0  0  0  0
   10.9129   11.7629   19.3228 H   0  0  0  0  0
   11.5855   10.1516   18.9010 H   0  0  0  0  0
   12.2348   11.6299   18.1139 H   0  0  0  0  0
    8.7020    1.9060   24.7210 C   0  0  0  0  0
    9.5020    1.7010   23.5460 C   0  0  0  0  0
   10.0890    2.7460   22.8090 C   0  0  0  0  0
    9.8940    3.9850   23.3270 C   0  0  0  0  0
    9.1430    4.2220   24.4360 C   0  0  0  0  0
    8.5610    3.2360   25.1760 C   0  0  0  0  0
    8.0960    0.8660   25.4440 C   0  3  0  0  0
    7.6220    1.1290   26.6300 N   0  0  0  0  0
    7.9690   -0.3410   24.9550 N   0  0  0  0  0
   10.2800    5.1330   22.9050 N   0  0  0  0  0
    9.0730    5.4870   24.7590 N   0  0  0  0  0
    9.7890    5.9750   23.7630 C   0  0  0  0  0
   10.0240    7.3300   23.6610 C   0  0  0  0  0
    9.6070    8.1950   24.6730 C   0  0  0  0  0
    9.8420    9.5420   24.5870 C   0  0  0  0  0
   10.4300   10.0580   23.4430 C   0  0  0  0  0
   10.8560    9.2200   22.4070 C   0  0  0  0  0
   10.6190    7.8690   22.5090 C   0  0  0  0  0
   11.0360    7.0530   21.4740 O   0  0  0  0  0
   11.4570    9.7000   21.2550 O   0  0  0  0  0
   12.2690   10.8580   21.4780 C   0  0  0  0  0
   12.8550   11.3540   20.1570 C   0  0  0  0  0
   14.1520   10.6070   19.8240 C   0  0  0  0  0
   11.8260   11.2150   19.0470 C   0  0  0  0  0
    9.7230    0.4740   23.0740 F   0  0  0  0  0
 22 45  1  0  0  0
 23  1  1  0  0  0
 26  2  1  0  0  0
 28  3  1  0  0  0
 28  4  1  0  0  0
 29  5  1  0  0  0
 29  6  1  0  0  0
 31  7  1  0  0  0
 34  8  1  0  0  0
 35  9  1  0  0  0
 36 10  1  0  0  0
 39 11  1  0  0  0
 41 12  1  0  0  0
 41 13  1  0  0  0
 42 14  1  0  0  0
 43 15  1  0  0  0
 43 16  1  0  0  0
 43 17  1  0  0  0
 44 18  1  0  0  0
 44 19  1  0  0  0
 44 20  1  0  0  0
 27 21  1  0  0  0
 21 26  4  0  0  0
 21 22  4  0  0  0
 22 23  4  0  0  0
 23 24  4  0  0  0
 24 30  1  0  0  0
 25 24  4  0  0  0
 25 31  1  0  0  0
 26 25  4  0  0  0
 31 32  1  0  0  0
 32 33  1  0  0  0
 30 32  2  0  0  0
 33 38  4  0  0  0
 33 34  4  0  0  0
 34 35  4  0  0  0
 35 36  4  0  0  0
 37 36  4  0  0  0
 37 40  1  0  0  0
 38 37  4  0  0  0
 38 39  1  0  0  0
 40 41  1  0  0  0
 41 42  1  0  0  0
 42 44  1  0  0  0
 42 43  1  0  0  0
 27 29  1  0  0  0
 27 28  1  0  0  0
M  END
$$$$
