### 
### Created by X-TOOL on Mon Oct 24 22:41:47 2005
### 

@<TRIPOS>MOLECULE
1i9q_ligand
   34    35     1     0     0
SMALL
GAST_HUCK


@<TRIPOS>ATOM
      1 C01        -3.7720    3.2670   14.7290 C.ar      1 SUB1       -0.040
      2 C02        -4.2660    2.2060   15.4840 C.ar      1 SUB1       -0.030
      3 C03        -5.6340    2.1660   15.8590 C.ar      1 SUB1        0.112
      4 C04        -6.4410    3.2220   15.4350 C.ar      1 SUB1       -0.030
      5 C05        -5.9110    4.2760   14.6760 C.ar      1 SUB1       -0.040
      6 C06        -4.5780    4.3180   14.3170 C.ar      1 SUB1        0.050
      7 C07        -4.0060    5.4890   13.5130 C.2       1 SUB1        0.207
      8 O08        -4.8270    6.3470   13.2270 O.2       1 SUB1       -0.384
      9 N09        -2.6290    5.6780   13.0980 N.am      1 SUB1       -0.275
     10 C10        -2.2970    6.9410   12.3870 C.3       1 SUB1        0.060
     11 S11        -6.1870    0.7660   16.8500 S.o2      1 SUB1        0.068
     12 NP2        -5.8180   -0.6690   16.1170 N.am      1 SUB1       -0.261
     13 O13        -7.5890    1.0630   16.9860 O.2       1 SUB1       -0.150
     14 O14        -5.5180    0.9770   18.1320 O.2       1 SUB1       -0.150
     15 C15        -1.5690    7.9520   13.1180 C.ar      1 SUB1       -0.029
     16 C16        -0.5440    8.7650   12.4900 C.ar      1 SUB1       -0.031
     17 C17         0.1500    9.7570   13.3030 C.ar      1 SUB1        0.157
     18 C18        -0.1770    9.9210   14.6870 C.ar      1 SUB1        0.190
     19 C19        -1.1880    9.1150   15.2960 C.ar      1 SUB1        0.157
     20 C20        -1.8790    8.1410   14.5300 C.ar      1 SUB1       -0.031
     21 F21         1.1020   10.5220   12.7500 F         1 SUB1       -0.187
     22 F22         0.4650   10.8350   15.4260 F         1 SUB1       -0.191
     23 F23        -1.4990    9.2620   16.5900 F         1 SUB1       -0.187
     24 H11        -2.7234    3.2716   14.4544 H         1 SUB1        0.067
     25 H21        -3.6010    1.4054   15.7872 H         1 SUB1        0.065
     26 H41        -7.4931    3.2282   15.6959 H         1 SUB1        0.065
     27 H51        -6.5664    5.0805   14.3623 H         1 SUB1        0.067
     28 H91        -1.9307    4.9864   13.2827 H         1 SUB1        0.187
     29 H101       -3.2450    7.3920   12.0585 H         1 SUB1        0.067
     30 H102       -1.6937    6.6737   11.5069 H         1 SUB1        0.067
     31 H121       -6.0665   -1.5328   16.5553 H         1 SUB1        0.163
     32 H122       -5.3462   -0.6733   15.2353 H         1 SUB1        0.163
     33 H161       -0.3000    8.6379   11.4415 H         1 SUB1        0.050
     34 H201       -2.6438    7.5323   14.9985 H         1 SUB1        0.050
@<TRIPOS>BOND
     1    1    2 ar 
     2    1    6 ar 
     3    2    3 ar 
     4    3    4 ar 
     5    3   11 1  
     6    4    5 ar 
     7    5    6 ar 
     8    6    7 1  
     9    7    8 2  
    10    7    9 am 
    11    9   10 1  
    12   10   15 1  
    13   11   12 1  
    14   11   13 2  
    15   11   14 2  
    16   15   16 ar 
    17   15   20 ar 
    18   16   17 ar 
    19   17   18 ar 
    20   17   21 1  
    21   18   19 ar 
    22   18   22 1  
    23   19   20 ar 
    24   19   23 1  
    25    1   24 1  
    26    2   25 1  
    27    4   26 1  
    28    5   27 1  
    29    9   28 1  
    30   10   29 1  
    31   10   30 1  
    32   12   31 1  
    33   12   32 1  
    34   16   33 1  
    35   20   34 1  
@<TRIPOS>SUBSTRUCTURE
     1 SUB1        1 GROUP

