### 
### Created by X-TOOL on Mon Oct 24 22:27:46 2005
### 

@<TRIPOS>MOLECULE
1rdl_ligand
   24    24     1     0     0
SMALL
GAST_HUCK


@<TRIPOS>ATOM
      1 C1          2.0340   46.4730    0.1180 C.3       1 SUB1        0.185
      2 C2          2.3850   45.3740    1.1240 C.3       1 SUB1        0.134
      3 C3          3.0440   45.9990    2.3600 C.3       1 SUB1        0.114
      4 C4          4.2460   46.8250    1.9420 C.3       1 SUB1        0.112
      5 C5          3.8550   47.8640    0.8910 C.3       1 SUB1        0.113
      6 C6          5.0800   48.5910    0.3550 C.3       1 SUB1        0.073
      7 O1          1.0350   47.2970    0.6560 O.3       1 SUB1       -0.365
      8 O2          3.2810   44.4590    0.5230 O.3       1 SUB1       -0.384
      9 O3          3.4850   44.9810    3.2460 O.3       1 SUB1       -0.386
     10 O4          4.7920   47.4640    3.0810 O.3       1 SUB1       -0.387
     11 O5          3.2090   47.2120   -0.2310 O.3       1 SUB1       -0.341
     12 O6          4.7640   49.3670   -0.7930 O.3       1 SUB1       -0.392
     13 H11         1.6505   46.0089   -0.8026 H         1 SUB1        0.094
     14 H21         1.4738   44.8338    1.4202 H         1 SUB1        0.067
     15 H31         2.3159   46.6346    2.8851 H         1 SUB1        0.065
     16 H41         5.0133   46.1593    1.5200 H         1 SUB1        0.065
     17 H51         3.1559   48.5876    1.3355 H         1 SUB1        0.065
     18 H61         5.4724   49.2642    1.1313 H         1 SUB1        0.058
     19 H62         5.8471   47.8540    0.0750 H         1 SUB1        0.058
     20 H71         1.3636   47.7202    1.4405 H         1 SUB1        0.213
     21 H81         3.4990   43.7755    1.1458 H         1 SUB1        0.210
     22 H91         4.1199   44.4303    2.8030 H         1 SUB1        0.210
     23 H101        5.0308   46.8089    3.7262 H         1 SUB1        0.210
     24 H121        4.4285   48.7981   -1.4758 H         1 SUB1        0.209
@<TRIPOS>BOND
     1    1    2 1  
     2    1    7 1  
     3    1   11 1  
     4    2    3 1  
     5    2    8 1  
     6    3    4 1  
     7    3    9 1  
     8    4    5 1  
     9    4   10 1  
    10    5    6 1  
    11    5   11 1  
    12    6   12 1  
    13    1   13 1  
    14    2   14 1  
    15    3   15 1  
    16    4   16 1  
    17    5   17 1  
    18    6   18 1  
    19    6   19 1  
    20    7   20 1  
    21    8   21 1  
    22    9   22 1  
    23   10   23 1  
    24   12   24 1  
@<TRIPOS>SUBSTRUCTURE
     1 SUB1        1 GROUP

