### 
### Created by X-TOOL on Mon Oct 24 23:18:09 2005
### 

@<TRIPOS>MOLECULE
1xge_ligand
   16    16     1     0     0
SMALL
GAST_HUCK


@<TRIPOS>ATOM
      1 O2         24.9080   37.3920   72.7780 O.2       1 SUB1       -0.391
      2 C2         25.6880   38.3340   72.6590 C.2       1 SUB1        0.291
      3 N1         25.2210   39.5770   72.5990 N.am      1 SUB1       -0.249
      4 N3         27.0050   38.1320   72.5030 N.am      1 SUB1       -0.185
      5 C4         27.8820   39.1010   72.1160 C.2       1 SUB1        0.210
      6 O4         29.0800   38.8910   71.8900 O.2       1 SUB1       -0.386
      7 C5         27.3820   40.5310   71.9870 C.3       1 SUB1        0.076
      8 C6         26.1050   40.7070   72.7980 C.3       1 SUB1        0.099
      9 C7         25.4200   41.9610   72.3630 C.2       1 SUB1        0.055
     10 O72        26.0130   43.0460   72.4880 O.co2     1 SUB1       -0.564
     11 O71        24.2740   41.8500   71.8910 O.co2     1 SUB1       -0.564
     12 H31        24.2506   39.7334   72.4148 H         1 SUB1        0.190
     13 H41        27.3647   37.2161   72.6812 H         1 SUB1        0.225
     14 H71        27.1759   40.7517   70.9293 H         1 SUB1        0.057
     15 H72        28.1511   41.2219   72.3627 H         1 SUB1        0.057
     16 H81        26.3606   40.7815   73.8653 H         1 SUB1        0.080
@<TRIPOS>BOND
     1    1    2 2  
     2    2    3 am 
     3    2    4 am 
     4    3    8 1  
     5    4    5 am 
     6    5    6 2  
     7    5    7 1  
     8    7    8 1  
     9    8    9 1  
    10    9   10 2  
    11    9   11 2  
    12    3   12 1  
    13    4   13 1  
    14    7   14 1  
    15    7   15 1  
    16    8   16 1  
@<TRIPOS>SUBSTRUCTURE
     1 SUB1        1 GROUP

