1gcz_ligand
  -I-interpret- 

 27 28  0  0  0  0  0  0  0  0999 V2000
   65.4074   22.9152   18.7259 H   0  0  0  0  0
   64.1658   21.9611   19.6060 H   0  0  0  0  0
   64.4516   23.6805   20.0402 H   0  0  0  0  0
   63.3564   22.6565   17.3848 H   0  0  0  0  0
   63.6422   24.3760   17.8190 H   0  0  0  0  0
   61.3743   29.6345   20.1404 H   0  0  0  0  0
   61.4454   27.0908   20.4711 H   0  0  0  0  0
   59.8761   28.9235   15.3117 H   0  0  0  0  0
   60.2771   32.2321   16.7041 H   0  0  0  0  0
   60.8843   31.6106   18.6330 H   0  0  0  0  0
   64.4220   22.9560   19.2130 C   0  0  0  0  0
   63.3860   23.3810   18.2120 C   0  0  0  0  0
   61.3510   24.5010   20.7240 O   0  0  0  0  0
   62.0570   23.4360   18.8690 O   0  0  0  0  0
   61.0580   29.4880   19.1140 C   0  0  0  0  0
   61.1960   26.9880   19.4160 C   0  0  0  0  0
   60.1960   29.0700   16.3370 C   0  0  0  0  0
   60.3600   26.7030   16.7360 O   0  0  0  0  0
   60.9070   28.1890   18.5730 C   0  0  0  0  0
   60.4860   28.0060   17.2200 C   0  0  0  0  0
   60.6760   25.6360   17.4340 C   0  0  0  0  0
   61.5290   24.5010   19.5440 C   0  0  0  0  0
   60.1240   31.4520   16.1840 O   0  0  0  0  0
   60.5840   24.5910   16.9260 O   0  0  0  0  0
   60.7800   30.5970   18.2630 C   0  0  0  0  0
   61.1380   25.7560   18.8230 C   0  0  0  0  0
   60.3670   30.3620   16.9320 C   0  0  0  0  0
 11  1  1  0  0  0
 11  2  1  0  0  0
 11  3  1  0  0  0
 12  4  1  0  0  0
 12  5  1  0  0  0
 15  6  1  0  0  0
 16  7  1  0  0  0
 17  8  1  0  0  0
 23  9  1  0  0  0
 25 10  1  0  0  0
 12 11  1  0  0  0
 14 12  1  0  0  0
 22 14  1  0  0  0
 22 13  2  0  0  0
 26 22  1  0  0  0
 16 26  2  0  0  0
 21 26  1  0  0  0
 18 21  1  0  0  0
 21 24  2  0  0  0
 20 18  1  0  0  0
 17 20  4  0  0  0
 20 19  4  0  0  0
 19 16  1  0  0  0
 15 19  4  0  0  0
 25 15  4  0  0  0
 27 25  4  0  0  0
 27 17  4  0  0  0
 27 23  1  0  0  0
M  END
$$$$
