### 
### Created by X-TOOL on Mon Oct 24 23:08:05 2005
### 

@<TRIPOS>MOLECULE
1gcz_ligand
   27    28     1     0     0
SMALL
GAST_HUCK


@<TRIPOS>ATOM
      1 H111       65.4074   22.9152   18.7259 H         1 SUB1        0.025
      2 H112       64.1658   21.9611   19.6060 H         1 SUB1        0.025
      3 H113       64.4516   23.6805   20.0402 H         1 SUB1        0.025
      4 H121       63.3564   22.6565   17.3848 H         1 SUB1        0.061
      5 H122       63.6422   24.3760   17.8190 H         1 SUB1        0.061
      6 H151       61.3743   29.6345   20.1404 H         1 SUB1        0.064
      7 H161       61.4454   27.0908   20.4711 H         1 SUB1        0.085
      8 H171       59.8761   28.9235   15.3117 H         1 SUB1        0.050
      9 H231       60.2771   32.2321   16.7041 H         1 SUB1        0.252
     10 H251       60.8843   31.6106   18.6330 H         1 SUB1        0.051
     11 C3         64.4220   22.9560   19.2130 C.3       1 SUB1       -0.037
     12 C11        63.3860   23.3810   18.2120 C.3       1 SUB1        0.072
     13 O1         61.3510   24.5010   20.7240 O.2       1 SUB1       -0.369
     14 O2         62.0570   23.4360   18.8690 O.3       1 SUB1       -0.281
     15 C6         61.0580   29.4880   19.1140 C.ar      1 SUB1       -0.056
     16 C5         61.1960   26.9880   19.4160 C.2       1 SUB1       -0.020
     17 C4         60.1960   29.0700   16.3370 C.ar      1 SUB1        0.012
     18 O3         60.3600   26.7030   16.7360 O.3       1 SUB1       -0.209
     19 C2         60.9070   28.1890   18.5730 C.ar      1 SUB1        0.026
     20 C1         60.4860   28.0060   17.2200 C.ar      1 SUB1        0.140
     21 C7         60.6760   25.6360   17.4340 C.2       1 SUB1        0.277
     22 C12        61.5290   24.5010   19.5440 C.2       1 SUB1        0.257
     23 O4         60.1240   31.4520   16.1840 O.3       1 SUB1       -0.329
     24 O5         60.5840   24.5910   16.9260 O.2       1 SUB1       -0.376
     25 C10        60.7800   30.5970   18.2630 C.ar      1 SUB1       -0.032
     26 C9         61.1380   25.7560   18.8230 C.2       1 SUB1        0.136
     27 C8         60.3670   30.3620   16.9320 C.ar      1 SUB1        0.091
@<TRIPOS>BOND
     1   11    1 1  
     2   11    2 1  
     3   11    3 1  
     4   12    4 1  
     5   12    5 1  
     6   15    6 1  
     7   16    7 1  
     8   17    8 1  
     9   23    9 1  
    10   25   10 1  
    11   12   11 1  
    12   14   12 1  
    13   22   14 1  
    14   22   13 2  
    15   26   22 1  
    16   16   26 2  
    17   21   26 1  
    18   18   21 1  
    19   21   24 2  
    20   20   18 1  
    21   17   20 ar 
    22   20   19 ar 
    23   19   16 1  
    24   15   19 ar 
    25   25   15 ar 
    26   27   25 ar 
    27   27   17 ar 
    28   27   23 1  
@<TRIPOS>SUBSTRUCTURE
     1 SUB1        1 GROUP

