1ctt_ligand
  -I-interpret- 

 30 31  0  0  0  0  0  0  0  0999 V2000
   36.2906   46.1931    7.5297 H   0  0  0  0  0
   34.5011   45.5558    9.4274 H   0  0  0  0  0
   33.8596   45.7135    7.7570 H   0  0  0  0  0
   32.4051   47.2564    9.1735 H   0  0  0  0  0
   33.3475   49.4291    9.6455 H   0  0  0  0  0
   36.9674   50.1383    9.5247 H   0  0  0  0  0
   34.8080   51.9538    8.8881 H   0  0  0  0  0
   37.5875   51.7262    8.3158 H   0  0  0  0  0
   35.5479   53.5107   10.4717 H   0  0  0  0  0
   37.7773   53.0948    9.7774 H   0  0  0  0  0
   36.0936   51.6373   12.5100 H   0  0  0  0  0
   33.9158   52.3647   12.7558 H   0  0  0  0  0
   33.7250   50.6203   12.3719 H   0  0  0  0  0
   33.5083   51.2674   10.1104 H   0  0  0  0  0
   35.3030   48.9280    9.0090 N   0  0  0  0  0
   36.2150   48.0430    8.4400 C   0  0  0  0  0
   37.3770   48.3610    8.1860 O   0  0  0  0  0
   35.7260   46.7830    8.1070 N   0  0  0  0  0
   34.3520   46.2460    8.5840 C   0  0  0  0  0
   33.4730   47.4160    9.0320 C   0  0  0  0  0
   33.9940   48.6440    9.2560 C   0  0  0  0  0
   35.8860   50.3090    9.6320 C   0  0  0  0  0
   35.8290   51.7290    9.2300 C   0  0  0  0  0
   36.6940   51.9520    8.0850 O   0  0  0  0  0
   36.0520   52.5330   10.4680 C   0  0  0  0  0
   37.4510   52.6540   10.5530 O   0  0  0  0  0
   35.4790   51.5220   11.6050 C   0  0  0  0  0
   35.6150   50.1690   11.0250 O   0  0  0  0  0
   34.0690   51.5920   11.9880 C   0  0  0  0  0
   33.3570   51.9390   10.7650 O   0  0  0  0  0
 18  1  1  0  0  0
 19  2  1  0  0  0
 19  3  1  0  0  0
 20  4  1  0  0  0
 21  5  1  0  0  0
 22  6  1  0  0  0
 23  7  1  0  0  0
 24  8  1  0  0  0
 25  9  1  0  0  0
 26 10  1  0  0  0
 27 11  1  0  0  0
 29 12  1  0  0  0
 29 13  1  0  0  0
 30 14  1  0  0  0
 15 16  1  0  0  0
 15 21  1  0  0  0
 22 15  1  0  0  0
 16 17  2  0  0  0
 16 18  1  0  0  0
 18 19  1  0  0  0
 20 19  1  0  0  0
 21 20  2  0  0  0
 22 23  1  0  0  0
 28 22  1  0  0  0
 23 24  1  0  0  0
 25 23  1  0  0  0
 25 26  1  0  0  0
 27 25  1  0  0  0
 27 28  1  0  0  0
 29 27  1  0  0  0
 29 30  1  0  0  0
M  END
$$$$
