### 
### Created by X-TOOL on Tue Oct 25 01:25:18 2005
### 

@<TRIPOS>MOLECULE
1ctt_ligand
   30    31     1     0     0
SMALL
GAST_HUCK


@<TRIPOS>ATOM
      1 H181       36.2906   46.1931    7.5297 H         1 SUB1        0.187
      2 H191       34.5011   45.5558    9.4274 H         1 SUB1        0.058
      3 H192       33.8596   45.7135    7.7570 H         1 SUB1        0.058
      4 H201       32.4051   47.2564    9.1735 H         1 SUB1        0.023
      5 H211       33.3475   49.4291    9.6455 H         1 SUB1        0.080
      6 H221       36.9674   50.1383    9.5247 H         1 SUB1        0.096
      7 H231       34.8080   51.9538    8.8881 H         1 SUB1        0.067
      8 H241       37.5875   51.7262    8.3158 H         1 SUB1        0.210
      9 H251       35.5479   53.5107   10.4717 H         1 SUB1        0.065
     10 H261       37.7773   53.0948    9.7774 H         1 SUB1        0.210
     11 H271       36.0936   51.6373   12.5100 H         1 SUB1        0.065
     12 H291       33.9158   52.3647   12.7558 H         1 SUB1        0.058
     13 H292       33.7250   50.6203   12.3719 H         1 SUB1        0.058
     14 H301       33.5083   51.2674   10.1104 H         1 SUB1        0.209
     15 N1         35.3030   48.9280    9.0090 N.am      1 SUB1       -0.193
     16 C2         36.2150   48.0430    8.4400 C.2       1 SUB1        0.291
     17 O2         37.3770   48.3610    8.1860 O.2       1 SUB1       -0.391
     18 N3         35.7260   46.7830    8.1070 N.am      1 SUB1       -0.264
     19 C4         34.3520   46.2460    8.5840 C.3       1 SUB1        0.037
     20 C5         33.4730   47.4160    9.0320 C.2       1 SUB1       -0.072
     21 C6         33.9940   48.6440    9.2560 C.2       1 SUB1        0.017
     22 C1'        35.8860   50.3090    9.6320 C.3       1 SUB1        0.194
     23 C2'        35.8290   51.7290    9.2300 C.3       1 SUB1        0.136
     24 O2'        36.6940   51.9520    8.0850 O.3       1 SUB1       -0.384
     25 C3'        36.0520   52.5330   10.4680 C.3       1 SUB1        0.114
     26 O3'        37.4510   52.6540   10.5530 O.3       1 SUB1       -0.386
     27 C4'        35.4790   51.5220   11.6050 C.3       1 SUB1        0.113
     28 O4'        35.6150   50.1690   11.0250 O.3       1 SUB1       -0.339
     29 C5'        34.0690   51.5920   11.9880 C.3       1 SUB1        0.073
     30 O5'        33.3570   51.9390   10.7650 O.3       1 SUB1       -0.392
@<TRIPOS>BOND
     1   18    1 1  
     2   19    2 1  
     3   19    3 1  
     4   20    4 1  
     5   21    5 1  
     6   22    6 1  
     7   23    7 1  
     8   24    8 1  
     9   25    9 1  
    10   26   10 1  
    11   27   11 1  
    12   29   12 1  
    13   29   13 1  
    14   30   14 1  
    15   15   16 am 
    16   15   21 am 
    17   22   15 1  
    18   16   17 2  
    19   16   18 am 
    20   18   19 1  
    21   20   19 1  
    22   21   20 2  
    23   22   23 1  
    24   28   22 1  
    25   23   24 1  
    26   25   23 1  
    27   25   26 1  
    28   27   25 1  
    29   27   28 1  
    30   29   27 1  
    31   29   30 1  
@<TRIPOS>SUBSTRUCTURE
     1 SUB1        1 GROUP

