### 
### Created by X-TOOL on Tue Oct 25 01:46:52 2005
### 

@<TRIPOS>MOLECULE
1tkb_ligand
   43    44     1     0     0
SMALL
GAST_HUCK


@<TRIPOS>ATOM
      1 H181       14.8940   70.6075   26.6961 H         1 SUB1        0.052
      2 H201       12.2222   72.9807   25.4131 H         1 SUB1        0.040
      3 H202       12.3707   71.6908   26.6543 H         1 SUB1        0.040
      4 H203       12.8904   71.3749   24.9641 H         1 SUB1        0.040
      5 H231       16.7822   76.0348   26.5733 H         1 SUB1        0.174
      6 H232       15.0258   76.2174   26.3195 H         1 SUB1        0.174
      7 H251       17.2426   71.4547   27.2244 H         1 SUB1        0.061
      8 H261       18.6982   73.0775   27.5958 H         1 SUB1        0.055
      9 H262       18.0093   74.7063   27.9110 H         1 SUB1        0.055
     10 H281       18.3798   76.5399   26.1807 H         1 SUB1        0.166
     11 H321       20.6299   71.8115   24.8457 H         1 SUB1        0.060
     12 H322       18.9071   71.8575   25.3522 H         1 SUB1        0.060
     13 H323       20.2084   72.0456   26.5761 H         1 SUB1        0.060
     14 H331       19.6774   73.6992   22.2400 H         1 SUB1        0.077
     15 H332       20.9749   72.7593   23.0523 H         1 SUB1        0.077
     16 H341       22.0767   73.8280   21.2665 H         1 SUB1        0.069
     17 H342       22.4187   74.9204   22.6508 H         1 SUB1        0.069
     18 C1'        15.1510   71.6520   26.5620 C.ar      1 SUB1       -0.054
     19 C2'        14.1810   72.6030   26.0860 C.ar      1 SUB1        0.002
     20 CM2        12.8320   72.1330   25.7590 C.3       1 SUB1       -0.023
     21 N3'        14.4520   73.9070   26.1670 N.ar      1 SUB1       -0.295
     22 C4'        15.7290   74.3340   26.3680 C.ar      1 SUB1        0.104
     23 N4'        15.8540   75.6140   26.4240 N.pl3     1 SUB1       -0.327
     24 C5'        16.8080   73.4460   26.6790 C.ar      1 SUB1        0.009
     25 C6'        16.4900   72.1430   26.8570 C.ar      1 SUB1       -0.058
     26 C7'        18.1730   73.9330   27.1460 C.3       1 SUB1        0.051
     27 N3         19.0730   74.5190   26.0850 N.2       1 SUB1       -0.275
     28 C2         18.9490   75.7740   25.6560 C.2       1 SUB1        0.135
     29 S1         19.7640   76.0410   24.2240 S.3       1 SUB1        0.116
     30 C5         20.2260   74.4020   24.1630 C.2       1 SUB1        0.173
     31 C4         19.8890   73.7600   25.3340 C.2       1 SUB1        0.131
     32 CM4        19.9100   72.2680   25.5410 C.3       1 SUB1        0.023
     33 C6         20.5940   73.7700   22.8440 C.3       1 SUB1        0.083
     34 C7         21.6260   74.4860   22.0240 C.3       1 SUB1        0.111
     35 O7         20.8100   75.4840   21.4380 O.3       1 SUB1       -0.249
     36 PA         20.9480   76.2430   20.0660 P.3       1 SUB1        0.373
     37 O1A        19.5300   76.6030   19.7350 O.co2     1 SUB1       -0.457
     38 O2A        21.7440   75.5680   18.9890 O.co2     1 SUB1       -0.457
     39 O3A        21.7210   77.6040   20.3090 O.3       1 SUB1       -0.257
     40 PB         23.1120   78.2230   19.9440 P.3       1 SUB1        0.158
     41 O1B        22.8750   79.4920   20.6290 O.co2     1 SUB1       -0.616
     42 O2B        23.1200   78.0370   18.4620 O.co2     1 SUB1       -0.616
     43 O3B        24.1110   77.3580   20.5720 O.co2     1 SUB1       -0.616
@<TRIPOS>BOND
     1   18    1 1  
     2   20    2 1  
     3   20    3 1  
     4   20    4 1  
     5   23    5 1  
     6   23    6 1  
     7   25    7 1  
     8   26    8 1  
     9   26    9 1  
    10   28   10 1  
    11   32   11 1  
    12   32   12 1  
    13   32   13 1  
    14   33   14 1  
    15   33   15 1  
    16   34   16 1  
    17   34   17 1  
    18   25   18 ar 
    19   18   19 ar 
    20   21   19 ar 
    21   19   20 1  
    22   22   21 ar 
    23   24   22 ar 
    24   22   23 1  
    25   26   24 1  
    26   24   25 ar 
    27   27   26 1  
    28   31   27 1  
    29   27   28 2  
    30   29   28 1  
    31   30   29 1  
    32   33   30 1  
    33   30   31 2  
    34   31   32 1  
    35   33   34 1  
    36   34   35 1  
    37   35   36 1  
    38   36   39 1  
    39   36   38 2  
    40   36   37 2  
    41   39   40 1  
    42   40   43 2  
    43   40   42 2  
    44   40   41 2  
@<TRIPOS>SUBSTRUCTURE
     1 SUB1        1 GROUP

