1tkb_ligand
  -I-interpret- 

 43 44  0  0  0  0  0  0  0  0999 V2000
   14.8940   70.6075   26.6961 H   0  0  0  0  0
   12.2222   72.9807   25.4131 H   0  0  0  0  0
   12.3707   71.6908   26.6543 H   0  0  0  0  0
   12.8904   71.3749   24.9641 H   0  0  0  0  0
   16.7822   76.0348   26.5733 H   0  0  0  0  0
   15.0258   76.2174   26.3195 H   0  0  0  0  0
   17.2426   71.4547   27.2244 H   0  0  0  0  0
   18.6982   73.0775   27.5958 H   0  0  0  0  0
   18.0093   74.7063   27.9110 H   0  0  0  0  0
   18.3798   76.5399   26.1807 H   0  0  0  0  0
   20.6299   71.8115   24.8457 H   0  0  0  0  0
   18.9071   71.8575   25.3522 H   0  0  0  0  0
   20.2084   72.0456   26.5761 H   0  0  0  0  0
   19.6774   73.6992   22.2400 H   0  0  0  0  0
   20.9749   72.7593   23.0523 H   0  0  0  0  0
   22.0767   73.8280   21.2665 H   0  0  0  0  0
   22.4187   74.9204   22.6508 H   0  0  0  0  0
   15.1510   71.6520   26.5620 C   0  0  0  0  0
   14.1810   72.6030   26.0860 C   0  0  0  0  0
   12.8320   72.1330   25.7590 C   0  0  0  0  0
   14.4520   73.9070   26.1670 N   0  0  0  0  0
   15.7290   74.3340   26.3680 C   0  0  0  0  0
   15.8540   75.6140   26.4240 N   0  0  0  0  0
   16.8080   73.4460   26.6790 C   0  0  0  0  0
   16.4900   72.1430   26.8570 C   0  0  0  0  0
   18.1730   73.9330   27.1460 C   0  0  0  0  0
   19.0730   74.5190   26.0850 N   0  3  0  0  0
   18.9490   75.7740   25.6560 C   0  0  0  0  0
   19.7640   76.0410   24.2240 S   0  0  0  0  0
   20.2260   74.4020   24.1630 C   0  0  0  0  0
   19.8890   73.7600   25.3340 C   0  0  0  0  0
   19.9100   72.2680   25.5410 C   0  0  0  0  0
   20.5940   73.7700   22.8440 C   0  0  0  0  0
   21.6260   74.4860   22.0240 C   0  0  0  0  0
   20.8100   75.4840   21.4380 O   0  0  0  0  0
   20.9480   76.2430   20.0660 P   0  0  0  0  0
   19.5300   76.6030   19.7350 O   0  5  0  0  0
   21.7440   75.5680   18.9890 O   0  0  0  0  0
   21.7210   77.6040   20.3090 O   0  0  0  0  0
   23.1120   78.2230   19.9440 P   0  0  0  0  0
   22.8750   79.4920   20.6290 O   0  0  0  0  0
   23.1200   78.0370   18.4620 O   0  5  0  0  0
   24.1110   77.3580   20.5720 O   0  5  0  0  0
 18  1  1  0  0  0
 20  2  1  0  0  0
 20  3  1  0  0  0
 20  4  1  0  0  0
 23  5  1  0  0  0
 23  6  1  0  0  0
 25  7  1  0  0  0
 26  8  1  0  0  0
 26  9  1  0  0  0
 28 10  1  0  0  0
 32 11  1  0  0  0
 32 12  1  0  0  0
 32 13  1  0  0  0
 33 14  1  0  0  0
 33 15  1  0  0  0
 34 16  1  0  0  0
 34 17  1  0  0  0
 25 18  4  0  0  0
 18 19  4  0  0  0
 21 19  4  0  0  0
 19 20  1  0  0  0
 22 21  4  0  0  0
 24 22  4  0  0  0
 22 23  1  0  0  0
 26 24  1  0  0  0
 24 25  4  0  0  0
 27 26  1  0  0  0
 31 27  1  0  0  0
 27 28  2  0  0  0
 29 28  1  0  0  0
 30 29  1  0  0  0
 33 30  1  0  0  0
 30 31  2  0  0  0
 31 32  1  0  0  0
 33 34  1  0  0  0
 34 35  1  0  0  0
 35 36  1  0  0  0
 36 39  1  0  0  0
 36 38  2  0  0  0
 36 37  1  0  0  0
 39 40  1  0  0  0
 40 43  1  0  0  0
 40 42  1  0  0  0
 40 41  2  0  0  0
M  END
$$$$
