### 
### Created by X-TOOL on Tue Oct 25 02:31:37 2005
### 

@<TRIPOS>MOLECULE
1nja_ligand
   32    33     1     0     0
SMALL
GAST_HUCK


@<TRIPOS>ATOM
      1 N1         15.1840   46.7700  -52.4170 N.am      1 SUB1       -0.168
      2 C2         14.3930   45.8310  -51.8040 C.2       1 SUB1        0.251
      3 N3         13.6130   46.2850  -50.7560 N.2       1 SUB1       -0.277
      4 C4         13.6360   47.5830  -50.3560 C.2       1 SUB1        0.085
      5 C5         14.4610   48.5200  -51.0050 C.2       1 SUB1        0.008
      6 C6         15.2310   48.0420  -52.0540 C.2       1 SUB1        0.079
      7 O2         14.3930   44.6540  -52.1480 O.2       1 SUB1       -0.407
      8 N4         12.9040   48.0020  -49.3460 N.pl3     1 SUB1       -0.316
      9 C1'        16.0180   46.4250  -53.5420 C.3       1 SUB1        0.186
     10 C2'        15.2480   46.3280  -54.8550 C.3       1 SUB1        0.034
     11 C3'        16.4140   46.3740  -55.8260 C.3       1 SUB1        0.089
     12 C4'        17.3030   47.5340  -55.3580 C.3       1 SUB1        0.116
     13 O4'        17.1420   47.3690  -53.8730 O.3       1 SUB1       -0.337
     14 O3'        17.1580   45.1450  -55.6540 O.3       1 SUB1       -0.389
     15 C5'        16.7270   48.8740  -55.8280 C.3       1 SUB1        0.094
     16 O5'        16.9780   48.9670  -57.2610 O.3       1 SUB1       -0.320
     17 P          15.9390   49.3110  -58.3770 P.3       1 SUB1        0.205
     18 O1P        16.4890   49.0510  -59.7300 O.co2     1 SUB1       -0.535
     19 O2P        14.8250   48.3920  -58.1470 O.co2     1 SUB1       -0.535
     20 O3P        15.5140   50.7430  -58.3510 O.co2     1 SUB1       -0.535
     21 H51        14.4929   49.5648  -50.6996 H         1 SUB1        0.037
     22 H61        15.8872   48.7263  -52.5898 H         1 SUB1        0.133
     23 H81        12.9380   48.9911  -49.0608 H         1 SUB1        0.183
     24 H82        12.2970   47.3408  -48.8406 H         1 SUB1        0.183
     25 H91        16.4537   45.4417  -53.3111 H         1 SUB1        0.100
     26 H101       14.5632   47.1775  -54.9940 H         1 SUB1        0.035
     27 H102       14.6847   45.3864  -54.9330 H         1 SUB1        0.035
     28 H111       16.0814   46.5054  -56.8662 H         1 SUB1        0.062
     29 H121       18.3479   47.4294  -55.6855 H         1 SUB1        0.065
     30 H141       17.4690   45.0871  -54.7583 H         1 SUB1        0.210
     31 H151       17.2234   49.7035  -55.3030 H         1 SUB1        0.064
     32 H152       15.6454   48.9102  -55.6309 H         1 SUB1        0.064
@<TRIPOS>BOND
     1    1    9 1  
     2    1    6 am 
     3    1    2 am 
     4    2    7 2  
     5    2    3 1  
     6    3    4 2  
     7    4    8 1  
     8    4    5 1  
     9    5    6 2  
    10    9   13 1  
    11    9   10 1  
    12   10   11 1  
    13   11   14 1  
    14   11   12 1  
    15   12   15 1  
    16   12   13 1  
    17   15   16 1  
    18   16   17 1  
    19   17   20 2  
    20   17   19 2  
    21   17   18 2  
    22    5   21 1  
    23    6   22 1  
    24    8   23 1  
    25    8   24 1  
    26    9   25 1  
    27   10   26 1  
    28   10   27 1  
    29   11   28 1  
    30   12   29 1  
    31   14   30 1  
    32   15   31 1  
    33   15   32 1  
@<TRIPOS>SUBSTRUCTURE
     1 SUB1        1 GROUP

