### 
### Created by X-TOOL on Tue Oct 25 01:35:06 2005
### 

@<TRIPOS>MOLECULE
1n46_ligand
   48    50     1     0     0
SMALL
GAST_HUCK


@<TRIPOS>ATOM
      1 O9         17.2230    5.2550    6.1390 O.2       1 SUB1       -0.374
      2 C14        18.0230    4.3770    6.2680 C.2       1 SUB1        0.366
      3 N6         17.9770    3.3560    7.1890 N.am      1 SUB1       -0.174
      4 C10        18.9470    2.3970    7.2460 C.2       1 SUB1        0.231
      5 O8         18.9550    1.4890    8.0470 O.2       1 SUB1       -0.388
      6 N5         19.0230    4.4100    5.4000 N.am      1 SUB1       -0.079
      7 N3         20.0320    3.4130    5.4060 N.2       1 SUB1       -0.137
      8 C17        20.0190    2.4460    6.2520 C.2       1 SUB1        0.111
      9 C4         19.2990    5.4070    4.4430 C.ar      1 SUB1        0.097
     10 C5         20.4930    6.1760    4.7530 C.ar      1 SUB1       -0.043
     11 C6         20.8590    7.2330    3.8770 C.ar      1 SUB1       -0.028
     12 C7         22.0400    8.0590    4.1150 C.3       1 SUB1       -0.036
     13 C3         18.5530    5.7190    3.3210 C.ar      1 SUB1       -0.043
     14 C2         18.9560    6.7020    2.3970 C.ar      1 SUB1       -0.028
     15 C19        18.0880    7.0200    1.1620 C.3       1 SUB1       -0.036
     16 C1         20.1030    7.4820    2.6960 C.ar      1 SUB1        0.104
     17 O20        20.3800    8.5040    1.8130 O.3       1 SUB1       -0.281
     18 C21        21.4190    8.3390    0.9100 C.ar      1 SUB1        0.092
     19 C31        21.6800    7.0750    0.2610 C.ar      1 SUB1       -0.045
     20 C22        22.2200    9.5120    0.6640 C.ar      1 SUB1       -0.036
     21 C24        23.2950    9.4250   -0.2570 C.ar      1 SUB1       -0.019
     22 C25        24.2110   10.6460   -0.5040 C.3       1 SUB1       -0.017
     23 C8         23.2930   11.8890   -0.7160 C.3       1 SUB1       -0.054
     24 C9         25.0970   10.7800    0.7600 C.3       1 SUB1       -0.054
     25 C26        23.5830    8.1750   -0.8550 C.ar      1 SUB1        0.079
     26 C29        22.7560    7.0450   -0.6370 C.ar      1 SUB1       -0.048
     27 O27        24.6370    8.0360   -1.7310 O.3       1 SUB1       -0.344
     28 H31        17.2133    3.3153    7.8333 H         1 SUB1        0.228
     29 H81        20.7908    1.6781    6.2294 H         1 SUB1        0.081
     30 H101       21.0887    5.9489    5.6297 H         1 SUB1        0.040
     31 H121       22.5111    7.7468    5.0587 H         1 SUB1        0.037
     32 H122       22.7608    7.9282    3.2944 H         1 SUB1        0.037
     33 H123       21.7484    9.1167    4.1931 H         1 SUB1        0.037
     34 H131       17.6244    5.1875    3.1467 H         1 SUB1        0.040
     35 H151       17.2561    6.3019    1.1144 H         1 SUB1        0.037
     36 H152       17.6784    8.0376    1.2433 H         1 SUB1        0.037
     37 H153       18.6911    6.9305    0.2465 H         1 SUB1        0.037
     38 H191       21.0760    6.1966    0.4579 H         1 SUB1        0.046
     39 H201       22.0045   10.4440    1.1739 H         1 SUB1        0.046
     40 H221       24.8533   10.4944   -1.3840 H         1 SUB1        0.043
     41 H231       23.9228   12.7731   -0.8941 H         1 SUB1        0.025
     42 H232       22.6429   11.7306   -1.5890 H         1 SUB1        0.025
     43 H233       22.6806   12.0605    0.1815 H         1 SUB1        0.025
     44 H241       25.7199    9.8787    0.8579 H         1 SUB1        0.025
     45 H242       25.7514   11.6593    0.6679 H         1 SUB1        0.025
     46 H243       24.4632   10.8761    1.6539 H         1 SUB1        0.025
     47 H261       22.9616    6.1301   -1.1809 H         1 SUB1        0.050
     48 H271       25.1097    8.8580   -1.7889 H         1 SUB1        0.242
@<TRIPOS>BOND
     1    1    2 2  
     2    2    3 am 
     3    2    6 am 
     4    3    4 am 
     5    4    5 2  
     6    4    8 1  
     7    6    7 1  
     8    6    9 1  
     9    7    8 2  
    10    9   10 ar 
    11    9   13 ar 
    12   10   11 ar 
    13   11   12 1  
    14   11   16 ar 
    15   13   14 ar 
    16   14   15 1  
    17   14   16 ar 
    18   16   17 1  
    19   17   18 1  
    20   18   19 ar 
    21   18   20 ar 
    22   19   26 ar 
    23   20   21 ar 
    24   21   22 1  
    25   21   25 ar 
    26   22   23 1  
    27   22   24 1  
    28   25   26 ar 
    29   25   27 1  
    30    3   28 1  
    31    8   29 1  
    32   10   30 1  
    33   12   31 1  
    34   12   32 1  
    35   12   33 1  
    36   13   34 1  
    37   15   35 1  
    38   15   36 1  
    39   15   37 1  
    40   19   38 1  
    41   20   39 1  
    42   22   40 1  
    43   23   41 1  
    44   23   42 1  
    45   23   43 1  
    46   24   44 1  
    47   24   45 1  
    48   24   46 1  
    49   26   47 1  
    50   27   48 1  
@<TRIPOS>SUBSTRUCTURE
     1 SUB1        1 GROUP

