### 
### Created by X-TOOL on Mon Oct 24 22:02:08 2005
### 

@<TRIPOS>MOLECULE
1cil_ligand
   36    37     1     0     0
SMALL
GAST_HUCK


@<TRIPOS>ATOM
      1 H181       -3.2446    1.5139   15.4184 H         1 SUB1        0.041
      2 H201       -1.7074    3.6323   14.4978 H         1 SUB1        0.097
      3 H211       -1.7085    5.6504   13.0056 H         1 SUB1        0.036
      4 H212       -2.4148    5.9424   14.6312 H         1 SUB1        0.036
      5 H221       -4.1146    5.4034   12.1638 H         1 SUB1        0.054
      6 H281       -5.5857   -1.4048   16.5997 H         1 SUB1        0.163
      7 H291       -3.3440    3.5667   12.0660 H         1 SUB1        0.203
      8 H292       -2.8362    2.2108   12.8490 H         1 SUB1        0.203
      9 H301       -2.7375    7.4451   11.7860 H         1 SUB1        0.025
     10 H302       -3.1704    8.0527   13.4200 H         1 SUB1        0.025
     11 H303       -4.4357    7.8998   12.1542 H         1 SUB1        0.025
     12 H331       -0.5126    3.0119   12.5821 H         1 SUB1        0.081
     13 H332       -1.2211    4.2109   11.4475 H         1 SUB1        0.081
     14 H341       -0.5027    2.1435   10.2362 H         1 SUB1        0.028
     15 H342       -2.2841    2.3588   10.1542 H         1 SUB1        0.028
     16 S1         -6.1860    3.6410   15.7000 S.3       1 SUB1       -0.003
     17 C2         -5.2590    2.2490   15.9490 C.2       1 SUB1        0.159
     18 C3         -3.9920    2.3040   15.3640 C.2       1 SUB1       -0.040
     19 C4         -3.8200    3.5480   14.6840 C.2       1 SUB1        0.011
     20 C5         -2.6000    3.9180   13.9220 C.3       1 SUB1        0.002
     21 C6         -2.5630    5.4380   13.6650 C.3       1 SUB1        0.019
     22 C7         -3.8020    6.0150   13.0230 C.3       1 SUB1        0.084
     23 S8         -5.0600    6.0120   14.2810 S.o2      1 SUB1        0.002
     24 C9         -4.9690    4.3680   14.7880 C.2       1 SUB1        0.141
     25 S10        -5.8850    0.9410   16.8910 S.o2      1 SUB1        0.074
     26 O11        -7.3100    0.9870   16.7290 O.2       1 SUB1       -0.150
     27 O12        -5.3490    1.0410   18.2200 O.2       1 SUB1       -0.150
     28 N13        -5.3270   -0.5200   16.1920 N.am      1 SUB1       -0.261
     29 N14        -2.6210    3.1750   12.6490 N.4       1 SUB1        0.238
     30 C15        -3.5160    7.4560   12.5630 C.3       1 SUB1       -0.042
     31 O16        -6.3310    6.2230   13.6410 O.2       1 SUB1       -0.171
     32 O17        -4.6970    6.8100   15.4220 O.2       1 SUB1       -0.171
     33 C18        -1.3550    3.2200   11.9060 C.3       1 SUB1       -0.035
     34 C19        -1.4350    2.1450   10.8200 C.3       1 SUB1       -0.024
     35 H343       -1.5756    1.1599   11.2888 H         1 SUB1        0.028
     36 H282       -4.7446   -0.4951   15.3795 H         1 SUB1        0.163
@<TRIPOS>BOND
     1   18    1 1  
     2   20    2 1  
     3   21    3 1  
     4   21    4 1  
     5   22    5 1  
     6   28    6 1  
     7   29    7 1  
     8   29    8 1  
     9   30    9 1  
    10   30   10 1  
    11   30   11 1  
    12   33   12 1  
    13   33   13 1  
    14   34   14 1  
    15   34   15 1  
    16   16   17 1  
    17   24   16 1  
    18   18   17 2  
    19   17   25 1  
    20   19   18 1  
    21   20   19 1  
    22   19   24 2  
    23   20   21 1  
    24   29   20 1  
    25   21   22 1  
    26   22   23 1  
    27   22   30 1  
    28   24   23 1  
    29   23   31 2  
    30   23   32 2  
    31   25   26 2  
    32   25   27 2  
    33   25   28 1  
    34   33   29 1  
    35   33   34 1  
    36   34   35 1  
    37   28   36 1  
@<TRIPOS>SUBSTRUCTURE
     1 SUB1        1 GROUP

