1cil_ligand
  -I-interpret- 

 36 37  0  0  0  0  0  0  0  0999 V2000
   -3.2446    1.5139   15.4184 H   0  0  0  0  0
   -1.7074    3.6323   14.4978 H   0  0  0  0  0
   -1.7085    5.6504   13.0056 H   0  0  0  0  0
   -2.4148    5.9424   14.6312 H   0  0  0  0  0
   -4.1146    5.4034   12.1638 H   0  0  0  0  0
   -5.5857   -1.4048   16.5997 H   0  0  0  0  0
   -3.3440    3.5667   12.0660 H   0  0  0  0  0
   -2.8362    2.2108   12.8490 H   0  0  0  0  0
   -2.7375    7.4451   11.7860 H   0  0  0  0  0
   -3.1704    8.0527   13.4200 H   0  0  0  0  0
   -4.4357    7.8998   12.1542 H   0  0  0  0  0
   -0.5126    3.0119   12.5821 H   0  0  0  0  0
   -1.2211    4.2109   11.4475 H   0  0  0  0  0
   -0.5027    2.1435   10.2362 H   0  0  0  0  0
   -2.2841    2.3588   10.1542 H   0  0  0  0  0
   -6.1860    3.6410   15.7000 S   0  0  0  0  0
   -5.2590    2.2490   15.9490 C   0  0  0  0  0
   -3.9920    2.3040   15.3640 C   0  0  0  0  0
   -3.8200    3.5480   14.6840 C   0  0  0  0  0
   -2.6000    3.9180   13.9220 C   0  0  0  0  0
   -2.5630    5.4380   13.6650 C   0  0  0  0  0
   -3.8020    6.0150   13.0230 C   0  0  0  0  0
   -5.0600    6.0120   14.2810 S   0  0  0  0  0
   -4.9690    4.3680   14.7880 C   0  0  0  0  0
   -5.8850    0.9410   16.8910 S   0  0  0  0  0
   -7.3100    0.9870   16.7290 O   0  0  0  0  0
   -5.3490    1.0410   18.2200 O   0  0  0  0  0
   -5.3270   -0.5200   16.1920 N   0  0  0  0  0
   -2.6210    3.1750   12.6490 N   0  3  0  0  0
   -3.5160    7.4560   12.5630 C   0  0  0  0  0
   -6.3310    6.2230   13.6410 O   0  0  0  0  0
   -4.6970    6.8100   15.4220 O   0  0  0  0  0
   -1.3550    3.2200   11.9060 C   0  0  0  0  0
   -1.4350    2.1450   10.8200 C   0  0  0  0  0
   -1.5756    1.1599   11.2888 H   0  0  0  0  0
   -4.7446   -0.4951   15.3795 H   0  0  0  0  0
 18  1  1  0  0  0
 20  2  1  0  0  0
 21  3  1  0  0  0
 21  4  1  0  0  0
 22  5  1  0  0  0
 28  6  1  0  0  0
 29  7  1  0  0  0
 29  8  1  0  0  0
 30  9  1  0  0  0
 30 10  1  0  0  0
 30 11  1  0  0  0
 33 12  1  0  0  0
 33 13  1  0  0  0
 34 14  1  0  0  0
 34 15  1  0  0  0
 16 17  1  0  0  0
 24 16  1  0  0  0
 18 17  2  0  0  0
 17 25  1  0  0  0
 19 18  1  0  0  0
 20 19  1  0  0  0
 19 24  2  0  0  0
 20 21  1  0  0  0
 29 20  1  0  0  0
 21 22  1  0  0  0
 22 23  1  0  0  0
 22 30  1  0  0  0
 24 23  1  0  0  0
 23 31  2  0  0  0
 23 32  2  0  0  0
 25 26  2  0  0  0
 25 27  2  0  0  0
 25 28  1  0  0  0
 33 29  1  0  0  0
 33 34  1  0  0  0
 34 35  1  0  0  0
 28 36  1  0  0  0
M  END
$$$$
