### 
### Created by X-TOOL on Tue Oct 25 02:13:08 2005
### 

@<TRIPOS>MOLECULE
1bp0_ligand
   31    32     1     0     0
SMALL
GAST_HUCK


@<TRIPOS>ATOM
      1 N1         14.6320   49.3690  -54.0670 N.am      1 SUB1       -0.162
      2 C2         13.7590   48.3600  -53.6130 C.2       1 SUB1        0.333
      3 N3         12.9080   48.7720  -52.6010 N.am      1 SUB1       -0.186
      4 C4         12.8720   50.0530  -52.0340 C.2       1 SUB1        0.182
      5 C5         13.8180   51.0080  -52.5780 C.2       1 SUB1        0.006
      6 C6         14.6710   50.5960  -53.5940 C.2       1 SUB1        0.059
      7 O2         13.6830   47.1930  -54.0040 O.2       1 SUB1       -0.382
      8 O4         12.0820   50.3120  -51.1310 O.2       1 SUB1       -0.412
      9 C1         15.5860   49.1780  -55.1500 C.3       1 SUB1        0.180
     10 C2         14.9980   48.8780  -56.5280 C.3       1 SUB1        0.032
     11 C3         16.2310   49.0110  -57.4080 C.3       1 SUB1        0.089
     12 C4         16.9300   50.3020  -56.9630 C.3       1 SUB1        0.115
     13 O3         17.0860   47.8970  -57.0730 O.3       1 SUB1       -0.389
     14 O4         16.5220   50.3020  -55.5030 O.3       1 SUB1       -0.339
     15 C5         16.3330   51.5210  -57.6790 C.3       1 SUB1        0.094
     16 O5         16.7830   51.5820  -59.0900 O.3       1 SUB1       -0.320
     17 P          15.8340   52.2120  -60.1670 P.3       1 SUB1        0.205
     18 O1P        14.7850   51.2090  -60.2900 O.co2     1 SUB1       -0.535
     19 O2P        15.2740   53.4900  -59.6740 O.co2     1 SUB1       -0.535
     20 O3P        16.3700   52.4670  -61.5100 O.co2     1 SUB1       -0.535
     21 H31        12.2630   48.0965  -52.2438 H         1 SUB1        0.226
     22 H51        13.8589   52.0276  -52.1977 H         1 SUB1        0.026
     23 H61        15.3875   51.3040  -54.0079 H         1 SUB1        0.118
     24 H91        16.1958   48.3172  -54.8382 H         1 SUB1        0.097
     25 H101       14.2242   49.6093  -56.8045 H         1 SUB1        0.034
     26 H102       14.5766   47.8630  -56.5746 H         1 SUB1        0.034
     27 H111       15.9804   49.0278  -58.4789 H         1 SUB1        0.062
     28 H121       18.0204   50.2665  -57.1035 H         1 SUB1        0.065
     29 H131       17.2326   47.8828  -56.1345 H         1 SUB1        0.210
     30 H151       16.6537   52.4360  -57.1594 H         1 SUB1        0.064
     31 H152       15.2355   51.4508  -57.6543 H         1 SUB1        0.064
@<TRIPOS>BOND
     1    1    2 am 
     2    1    6 1  
     3    1    9 1  
     4    2    3 am 
     5    2    7 2  
     6    3    4 am 
     7    4    5 1  
     8    4    8 2  
     9    5    6 2  
    10    9   10 1  
    11    9   14 1  
    12   10   11 1  
    13   11   12 1  
    14   11   13 1  
    15   12   14 1  
    16   12   15 1  
    17   15   16 1  
    18   16   17 1  
    19   17   18 2  
    20   17   19 2  
    21   17   20 2  
    22    3   21 1  
    23    5   22 1  
    24    6   23 1  
    25    9   24 1  
    26   10   25 1  
    27   10   26 1  
    28   11   27 1  
    29   12   28 1  
    30   13   29 1  
    31   15   30 1  
    32   15   31 1  
@<TRIPOS>SUBSTRUCTURE
     1 SUB1        1 GROUP

