### 
### Created by X-TOOL on Tue Oct 25 01:16:20 2005
### 

@<TRIPOS>MOLECULE
1jgl_ligand
   44    47     1     0     0
SMALL
GAST_HUCK


@<TRIPOS>ATOM
      1 C1         43.1480   25.8150   67.9760 C.ar      1 SUB1       -0.075
      2 C2         44.5470   25.7240   68.2820 C.ar      1 SUB1       -0.047
      3 C3         45.3400   24.6720   67.7000 C.ar      1 SUB1        0.074
      4 O3         46.6790   24.5930   68.0030 O.3       1 SUB1       -0.339
      5 C4         44.7490   23.7110   66.8090 C.ar      1 SUB1       -0.038
      6 C5         43.3380   23.7840   66.4790 C.ar      1 SUB1       -0.049
      7 C6         42.7360   22.7450   65.5040 C.3       1 SUB1       -0.024
      8 C7         41.2140   22.9120   65.1790 C.3       1 SUB1       -0.040
      9 C8         40.7130   24.3810   65.2470 C.3       1 SUB1       -0.026
     10 C9         40.9720   24.9410   66.7220 C.3       1 SUB1       -0.012
     11 C10        42.5000   24.8610   67.0770 C.ar      1 SUB1       -0.048
     12 C11        40.4190   26.4050   66.7950 C.3       1 SUB1       -0.042
     13 C12        38.9070   26.5280   66.4270 C.3       1 SUB1       -0.043
     14 C13        38.6580   26.0230   64.9750 C.3       1 SUB1       -0.003
     15 C14        39.1610   24.5000   64.9040 C.3       1 SUB1       -0.029
     16 C15        38.6040   24.0730   63.5350 C.3       1 SUB1       -0.047
     17 C16        37.1110   24.5910   63.6240 C.3       1 SUB1       -0.026
     18 C17        37.1590   25.8400   64.5770 C.3       1 SUB1        0.061
     19 O17        36.5330   26.9730   63.9170 O.3       1 SUB1       -0.391
     20 C18        39.3540   27.0060   63.9250 C.3       1 SUB1       -0.057
     21 H11        42.5586   26.6084   68.4211 H         1 SUB1        0.051
     22 H21        45.0056   26.4449   68.9492 H         1 SUB1        0.047
     23 H41        47.0627   23.8533   67.5467 H         1 SUB1        0.246
     24 H51        45.3619   22.9262   66.3806 H         1 SUB1        0.046
     25 H71        43.2819   22.8112   64.5513 H         1 SUB1        0.041
     26 H72        42.8677   21.7451   65.9431 H         1 SUB1        0.041
     27 H81        41.0277   22.5408   64.1604 H         1 SUB1        0.029
     28 H82        40.6317   22.3250   65.9044 H         1 SUB1        0.029
     29 H91        41.2688   24.9870   64.5164 H         1 SUB1        0.033
     30 H101       40.4117   24.3323   67.4469 H         1 SUB1        0.043
     31 H121       40.5464   26.7799   67.8212 H         1 SUB1        0.029
     32 H122       40.9875   27.0327   66.0931 H         1 SUB1        0.029
     33 H131       38.3082   25.9177   67.1190 H         1 SUB1        0.027
     34 H132       38.5964   27.5813   66.4910 H         1 SUB1        0.027
     35 H151       38.6379   23.8968   65.6606 H         1 SUB1        0.031
     36 H161       39.1388   24.5618   62.7073 H         1 SUB1        0.027
     37 H162       38.6320   22.9809   63.4066 H         1 SUB1        0.027
     38 H171       36.7414   24.8908   62.6323 H         1 SUB1        0.029
     39 H172       36.4542   23.8191   64.0514 H         1 SUB1        0.029
     40 H181       36.5758   25.6399   65.4879 H         1 SUB1        0.060
     41 H191       36.5615   27.7285   64.4922 H         1 SUB1        0.210
     42 H201       40.4103   27.1369   64.2027 H         1 SUB1        0.024
     43 H202       39.3002   26.5746   62.9146 H         1 SUB1        0.024
     44 H203       38.8553   27.9863   63.9413 H         1 SUB1        0.024
@<TRIPOS>BOND
     1    1    2 ar 
     2    1   11 ar 
     3    2    3 ar 
     4    3    4 1  
     5    3    5 ar 
     6    5    6 ar 
     7    6    7 1  
     8    6   11 ar 
     9    7    8 1  
    10    8    9 1  
    11    9   10 1  
    12    9   15 1  
    13   10   11 1  
    14   10   12 1  
    15   12   13 1  
    16   13   14 1  
    17   14   15 1  
    18   14   18 1  
    19   14   20 1  
    20   15   16 1  
    21   16   17 1  
    22   17   18 1  
    23   18   19 1  
    24    1   21 1  
    25    2   22 1  
    26    4   23 1  
    27    5   24 1  
    28    7   25 1  
    29    7   26 1  
    30    8   27 1  
    31    8   28 1  
    32    9   29 1  
    33   10   30 1  
    34   12   31 1  
    35   12   32 1  
    36   13   33 1  
    37   13   34 1  
    38   15   35 1  
    39   16   36 1  
    40   16   37 1  
    41   17   38 1  
    42   17   39 1  
    43   18   40 1  
    44   19   41 1  
    45   20   42 1  
    46   20   43 1  
    47   20   44 1  
@<TRIPOS>SUBSTRUCTURE
     1 SUB1        1 GROUP

