1jgl_ligand
  -I-interpret- 

 44 47  0  0  0  0  0  0  0  0999 V2000
   43.1480   25.8150   67.9760 C   0  0  0  0  0
   44.5470   25.7240   68.2820 C   0  0  0  0  0
   45.3400   24.6720   67.7000 C   0  0  0  0  0
   46.6790   24.5930   68.0030 O   0  0  0  0  0
   44.7490   23.7110   66.8090 C   0  0  0  0  0
   43.3380   23.7840   66.4790 C   0  0  0  0  0
   42.7360   22.7450   65.5040 C   0  0  0  0  0
   41.2140   22.9120   65.1790 C   0  0  0  0  0
   40.7130   24.3810   65.2470 C   0  0  0  0  0
   40.9720   24.9410   66.7220 C   0  0  0  0  0
   42.5000   24.8610   67.0770 C   0  0  0  0  0
   40.4190   26.4050   66.7950 C   0  0  0  0  0
   38.9070   26.5280   66.4270 C   0  0  0  0  0
   38.6580   26.0230   64.9750 C   0  0  0  0  0
   39.1610   24.5000   64.9040 C   0  0  0  0  0
   38.6040   24.0730   63.5350 C   0  0  0  0  0
   37.1110   24.5910   63.6240 C   0  0  0  0  0
   37.1590   25.8400   64.5770 C   0  0  0  0  0
   36.5330   26.9730   63.9170 O   0  0  0  0  0
   39.3540   27.0060   63.9250 C   0  0  0  0  0
   42.5586   26.6084   68.4211 H   0  0  0  0  0
   45.0056   26.4449   68.9492 H   0  0  0  0  0
   47.0627   23.8533   67.5467 H   0  0  0  0  0
   45.3619   22.9262   66.3806 H   0  0  0  0  0
   43.2819   22.8112   64.5513 H   0  0  0  0  0
   42.8677   21.7451   65.9431 H   0  0  0  0  0
   41.0277   22.5408   64.1604 H   0  0  0  0  0
   40.6317   22.3250   65.9044 H   0  0  0  0  0
   41.2688   24.9870   64.5164 H   0  0  0  0  0
   40.4117   24.3323   67.4469 H   0  0  0  0  0
   40.5464   26.7799   67.8212 H   0  0  0  0  0
   40.9875   27.0327   66.0931 H   0  0  0  0  0
   38.3082   25.9177   67.1190 H   0  0  0  0  0
   38.5964   27.5813   66.4910 H   0  0  0  0  0
   38.6379   23.8968   65.6606 H   0  0  0  0  0
   39.1388   24.5618   62.7073 H   0  0  0  0  0
   38.6320   22.9809   63.4066 H   0  0  0  0  0
   36.7414   24.8908   62.6323 H   0  0  0  0  0
   36.4542   23.8191   64.0514 H   0  0  0  0  0
   36.5758   25.6399   65.4879 H   0  0  0  0  0
   36.5615   27.7285   64.4922 H   0  0  0  0  0
   40.4103   27.1369   64.2027 H   0  0  0  0  0
   39.3002   26.5746   62.9146 H   0  0  0  0  0
   38.8553   27.9863   63.9413 H   0  0  0  0  0
  1  2  4  0  0  0
  1 11  4  0  0  0
  2  3  4  0  0  0
  3  4  1  0  0  0
  3  5  4  0  0  0
  5  6  4  0  0  0
  6  7  1  0  0  0
  6 11  4  0  0  0
  7  8  1  0  0  0
  8  9  1  0  0  0
  9 10  1  0  0  0
  9 15  1  0  0  0
 10 11  1  0  0  0
 10 12  1  0  0  0
 12 13  1  0  0  0
 13 14  1  0  0  0
 14 15  1  0  0  0
 14 18  1  0  0  0
 14 20  1  0  0  0
 15 16  1  0  0  0
 16 17  1  0  0  0
 17 18  1  0  0  0
 18 19  1  0  0  0
  1 21  1  0  0  0
  2 22  1  0  0  0
  4 23  1  0  0  0
  5 24  1  0  0  0
  7 25  1  0  0  0
  7 26  1  0  0  0
  8 27  1  0  0  0
  8 28  1  0  0  0
  9 29  1  0  0  0
 10 30  1  0  0  0
 12 31  1  0  0  0
 12 32  1  0  0  0
 13 33  1  0  0  0
 13 34  1  0  0  0
 15 35  1  0  0  0
 16 36  1  0  0  0
 16 37  1  0  0  0
 17 38  1  0  0  0
 17 39  1  0  0  0
 18 40  1  0  0  0
 19 41  1  0  0  0
 20 42  1  0  0  0
 20 43  1  0  0  0
 20 44  1  0  0  0
M  END
$$$$
