### 
### Created by X-TOOL on Tue Oct 25 00:51:16 2005
### 

@<TRIPOS>MOLECULE
1bxr_ligand
   44    46     1     0     0
SMALL
GAST_HUCK


@<TRIPOS>ATOM
      1 PG         20.7420   29.4160   71.6650 P.3       1 SUB1        0.137
      2 O1G        21.5970   29.0350   70.4450 O.co2     1 SUB1       -0.529
      3 O2G        21.4680   30.4410   72.4470 O.co2     1 SUB1       -0.529
      4 O3G        20.5270   28.1650   72.6600 O.co2     1 SUB1       -0.529
      5 PB         17.9740   29.1110   70.7120 P.3       1 SUB1        0.176
      6 O1B        18.3140   28.3020   69.4830 O.co2     1 SUB1       -0.611
      7 O2B        17.4090   28.2610   71.8170 O.co2     1 SUB1       -0.611
      8 N3B        19.2880   29.9350   71.2370 N.am      1 SUB1       -0.333
      9 PA         16.2510   31.3200   71.0760 P.3       1 SUB1        0.373
     10 O1A        15.2010   30.8060   72.0270 O.co2     1 SUB1       -0.457
     11 O2A        17.3890   31.9090   71.8580 O.co2     1 SUB1       -0.457
     12 O3A        16.8310   30.1010   70.2470 O.3       1 SUB1       -0.251
     13 O5         15.6130   32.4080   70.0710 O.3       1 SUB1       -0.253
     14 C5         16.4020   32.8080   68.9130 C.3       1 SUB1        0.111
     15 C4         16.2000   34.2750   68.5030 C.3       1 SUB1        0.119
     16 O4         14.8860   34.4730   67.9180 O.3       1 SUB1       -0.336
     17 C3         16.3140   35.3230   69.6070 C.3       1 SUB1        0.115
     18 O3         17.6850   35.6840   69.8610 O.3       1 SUB1       -0.386
     19 C2         15.3520   36.4310   69.1340 C.3       1 SUB1        0.139
     20 O2         16.0400   37.5370   68.5280 O.3       1 SUB1       -0.384
     21 C1         14.4090   35.7560   68.1460 C.3       1 SUB1        0.201
     22 N9         13.0470   35.6550   68.6980 N.pl3     1 SUB1       -0.192
     23 C8         12.5860   34.7950   69.6380 C.2       1 SUB1        0.112
     24 N7         11.2790   34.9230   69.8850 N.2       1 SUB1       -0.296
     25 C5         10.8660   35.9480   69.0720 C.ar      1 SUB1        0.105
     26 C6          9.5790   36.5350   68.9260 C.ar      1 SUB1        0.130
     27 N6          8.5250   36.2230   69.5420 N.pl3     1 SUB1       -0.315
     28 N1          9.6240   37.5490   68.0120 N.ar      1 SUB1       -0.270
     29 C2         10.7340   37.9740   67.3150 C.ar      1 SUB1        0.053
     30 N3         11.9220   37.4480   67.4500 N.ar      1 SUB1       -0.271
     31 C4         11.9430   36.4300   68.3430 C.ar      1 SUB1        0.161
     32 H81        19.1622   30.9250   71.3010 H         1 SUB1        0.133
     33 H141       16.1204   32.1684   68.0635 H         1 SUB1        0.065
     34 H142       17.4657   32.6570   69.1489 H         1 SUB1        0.065
     35 H151       16.9661   34.5002   67.7465 H         1 SUB1        0.065
     36 H171       15.9216   34.9077   70.5470 H         1 SUB1        0.065
     37 H181       18.0693   36.0410   69.0689 H         1 SUB1        0.210
     38 H191       14.7792   36.8098   69.9933 H         1 SUB1        0.068
     39 H201       16.6394   37.9193   69.1582 H         1 SUB1        0.210
     40 H211       14.3848   36.3267   67.2059 H         1 SUB1        0.100
     41 H231       13.2202   34.0686   70.1440 H         1 SUB1        0.135
     42 H271        7.6471   36.7254   69.3478 H         1 SUB1        0.182
     43 H272        8.5413   35.4655   70.2398 H         1 SUB1        0.182
     44 H291       10.6145   38.7922   66.6141 H         1 SUB1        0.100
@<TRIPOS>BOND
     1    1    2 2  
     2    1    3 2  
     3    1    4 2  
     4    8    1 am 
     5    5    6 2  
     6    5    7 2  
     7    5    8 am 
     8   12    5 1  
     9    9   10 2  
    10    9   11 2  
    11    9   12 1  
    12    9   13 1  
    13   13   14 1  
    14   14   15 1  
    15   15   16 1  
    16   15   17 1  
    17   16   21 1  
    18   17   18 1  
    19   17   19 1  
    20   19   20 1  
    21   19   21 1  
    22   21   22 1  
    23   22   23 1  
    24   22   31 1  
    25   23   24 2  
    26   24   25 1  
    27   25   26 ar 
    28   25   31 ar 
    29   26   27 1  
    30   26   28 ar 
    31   28   29 ar 
    32   29   30 ar 
    33   30   31 ar 
    34    8   32 1  
    35   14   33 1  
    36   14   34 1  
    37   15   35 1  
    38   17   36 1  
    39   18   37 1  
    40   19   38 1  
    41   20   39 1  
    42   21   40 1  
    43   23   41 1  
    44   27   42 1  
    45   27   43 1  
    46   29   44 1  
@<TRIPOS>SUBSTRUCTURE
     1 SUB1        1 GROUP

