### 
### Created by X-TOOL on Mon Oct 24 23:35:45 2005
### 

@<TRIPOS>MOLECULE
3pcg_ligand
   18    18     1     0     0
SMALL
GAST_HUCK


@<TRIPOS>ATOM
      1 H81        14.6012   12.7974   38.7898 H         1 SUB1        0.063
      2 H82        13.4877   13.4277   40.0505 H         1 SUB1        0.063
      3 H101       15.6388   10.5965   39.0072 H         1 SUB1        0.054
      4 H111       15.5680    8.3432   40.0659 H         1 SUB1        0.053
      5 C8         15.5990   13.7890   40.4550 C.2       1 SUB1        0.035
      6 O1         16.7700   13.6750   40.0290 O.co2     1 SUB1       -0.567
      7 O2         15.3480   14.4780   41.4700 O.co2     1 SUB1       -0.567
      8 C7         14.4470   12.9200   39.8720 C.3       1 SUB1        0.014
      9 C1         14.4130   11.5380   40.5330 C.ar      1 SUB1       -0.039
     10 C2         15.1060   10.4510   39.9400 C.ar      1 SUB1       -0.065
     11 C3         15.1060    9.1960   40.5500 C.ar      1 SUB1       -0.039
     12 C4         14.4920    9.0650   41.8080 C.ar      1 SUB1        0.082
     13 C5         13.8350   10.1460   42.4160 C.ar      1 SUB1       -0.039
     14 C6         13.8000   11.3790   41.7800 C.ar      1 SUB1       -0.065
     15 O4         14.4770    7.9050   42.5200 O.3       1 SUB1       -0.337
     16 H131       13.3561   10.0181   43.3800 H         1 SUB1        0.053
     17 H141       13.2983   12.2176   42.2491 H         1 SUB1        0.054
     18 H151       14.0107    8.0418   43.3363 H         1 SUB1        0.246
@<TRIPOS>BOND
     1    8    1 1  
     2    8    2 1  
     3   10    3 1  
     4    8    5 1  
     5    5    7 2  
     6    5    6 2  
     7    9    8 1  
     8    9   14 ar 
     9    9   10 ar 
    10   10   11 ar 
    11   11   12 ar 
    12   12   15 1  
    13   12   13 ar 
    14   13   14 ar 
    15   11    4 1  
    16   13   16 1  
    17   14   17 1  
    18   15   18 1  
@<TRIPOS>SUBSTRUCTURE
     1 SUB1        1 GROUP

