3pcg_ligand
  -I-interpret- 

 18 18  0  0  0  0  0  0  0  0999 V2000
   14.6012   12.7974   38.7898 H   0  0  0  0  0
   13.4877   13.4277   40.0505 H   0  0  0  0  0
   15.6388   10.5965   39.0072 H   0  0  0  0  0
   15.5680    8.3432   40.0659 H   0  0  0  0  0
   15.5990   13.7890   40.4550 C   0  0  0  0  0
   16.7700   13.6750   40.0290 O   0  0  0  0  0
   15.3480   14.4780   41.4700 O   0  5  0  0  0
   14.4470   12.9200   39.8720 C   0  0  0  0  0
   14.4130   11.5380   40.5330 C   0  0  0  0  0
   15.1060   10.4510   39.9400 C   0  0  0  0  0
   15.1060    9.1960   40.5500 C   0  0  0  0  0
   14.4920    9.0650   41.8080 C   0  0  0  0  0
   13.8350   10.1460   42.4160 C   0  0  0  0  0
   13.8000   11.3790   41.7800 C   0  0  0  0  0
   14.4770    7.9050   42.5200 O   0  0  0  0  0
   13.3561   10.0181   43.3800 H   0  0  0  0  0
   13.2983   12.2176   42.2491 H   0  0  0  0  0
   14.0107    8.0418   43.3363 H   0  0  0  0  0
  8  1  1  0  0  0
  8  2  1  0  0  0
 10  3  1  0  0  0
  8  5  1  0  0  0
  5  7  1  0  0  0
  5  6  2  0  0  0
  9  8  1  0  0  0
  9 14  4  0  0  0
  9 10  4  0  0  0
 10 11  4  0  0  0
 11 12  4  0  0  0
 12 15  1  0  0  0
 12 13  4  0  0  0
 13 14  4  0  0  0
 11  4  1  0  0  0
 13 16  1  0  0  0
 14 17  1  0  0  0
 15 18  1  0  0  0
M  END
$$$$
