1jev_ligand
  -I-interpret- 

 71 72  0  0  0  0  0  0  0  0999 V2000
    6.8620   16.6290   15.1970 N   0  3  0  0  0
    6.3920   17.9340   14.6200 C   0  0  0  0  0
    5.1030   18.3620   15.3010 C   0  0  0  0  0
    4.3370   17.5010   15.7230 O   0  0  0  0  0
    6.2400   17.8330   13.1120 C   0  0  0  0  0
    5.3540   16.6850   12.6460 C   0  0  0  0  0
    5.3180   16.6000   11.1250 C   0  0  0  0  0
    6.6030   15.9860   10.5700 C   0  0  0  0  0
    6.7150   14.5550   10.9660 N   0  3  0  0  0
    4.8910   19.6600   15.4540 N   0  0  0  0  0
    3.6920   20.1550   16.1270 C   0  0  0  0  0
    2.4620   20.0900   15.2250 C   0  0  0  0  0
    2.5160   20.3800   14.0430 O   0  0  0  0  0
    3.8860   21.6000   16.6060 C   0  0  0  0  0
    4.9530   21.7050   17.6590 C   0  0  0  0  0
    6.1460   22.3450   17.5650 C   0  0  0  0  0
    4.9170   21.1080   18.9620 C   0  0  0  0  0
    6.8600   22.1910   18.7300 N   0  0  0  0  0
    6.1270   21.4330   19.6020 C   0  0  0  0  0
    3.9680   20.3360   19.6490 C   0  0  0  0  0
    6.4170   21.0100   20.9010 C   0  0  0  0  0
    4.2640   19.9040   20.9250 C   0  0  0  0  0
    5.4830   20.2430   21.5420 C   0  0  0  0  0
    1.3330   19.6990   15.8410 N   0  0  0  0  0
    0.0750   19.6230   15.1390 C   0  0  0  0  0
   -1.0010   20.4270   15.8820 C   0  0  0  0  0
   -1.9790   20.8010   15.1960 O   0  5  0  0  0
   -0.4160   18.1660   15.0560 C   0  0  0  0  0
   -1.4650   18.0070   13.9580 C   0  0  0  0  0
   -2.3620   16.8230   14.1800 C   0  0  0  0  0
   -3.4910   16.8170   13.1640 C   0  0  0  0  0
   -2.9740   16.8470   11.7710 N   0  3  0  0  0
   -0.8210   20.6520   17.0920 O   0  0  0  0  0
    6.2289   16.3360   15.9246 H   0  0  0  0  0
    7.1554   18.6977   14.8294 H   0  0  0  0  0
    7.2395   17.6964   12.6735 H   0  0  0  0  0
    5.8046   18.7745   12.7459 H   0  0  0  0  0
    4.3323   16.8451   13.0208 H   0  0  0  0  0
    5.7485   15.7406   13.0491 H   0  0  0  0  0
    5.1982   17.6127   10.7127 H   0  0  0  0  0
    4.4636   15.9772   10.8215 H   0  0  0  0  0
    7.4678   16.5390   10.9654 H   0  0  0  0  0
    6.5928   16.0574    9.4724 H   0  0  0  0  0
    6.7373   14.4854   11.9713 H   0  0  0  0  0
    7.5624   14.1658   10.5834 H   0  0  0  0  0
    5.9211   14.0451   10.6114 H   0  0  0  0  0
    5.5626   20.3125   15.1031 H   0  0  0  0  0
    3.5100   19.5181   17.0052 H   0  0  0  0  0
    2.9368   21.9660   17.0244 H   0  0  0  0  0
    4.1725   22.2238   15.7465 H   0  0  0  0  0
    6.4884   22.9003   16.6930 H   0  0  0  0  0
    7.7944   22.5825   18.9160 H   0  0  0  0  0
    3.0208   20.0840   19.1860 H   0  0  0  0  0
    7.3491   21.2798   21.3842 H   0  0  0  0  0
    3.5464   19.2936   21.4613 H   0  0  0  0  0
    5.6859   19.8888   22.5462 H   0  0  0  0  0
    1.3660   19.4547   16.8101 H   0  0  0  0  0
    0.2055   20.0273   14.1244 H   0  0  0  0  0
   -0.8587   17.8794   16.0213 H   0  0  0  0  0
    0.4388   17.5097   14.8354 H   0  0  0  0  0
   -0.9495   17.8821   12.9943 H   0  0  0  0  0
   -2.0834   18.9162   13.9278 H   0  0  0  0  0
   -2.7866   16.8747   15.1934 H   0  0  0  0  0
   -1.7750   15.8987   14.0752 H   0  0  0  0  0
   -4.1242   17.7013   13.3288 H   0  0  0  0  0
   -4.0910   15.9055   13.3025 H   0  0  0  0  0
   -2.4349   17.6871   11.6307 H   0  0  0  0  0
   -3.7477   16.8325   11.1250 H   0  0  0  0  0
   -2.3888   16.0418   11.6124 H   0  0  0  0  0
    7.7861   16.7454   15.5825 H   0  0  0  0  0
    6.8863   15.9300   14.4712 H   0  0  0  0  0
  2  1  1  0  0  0
  2  5  1  0  0  0
  3  2  1  0  0  0
  3  4  2  0  0  0
  5  6  1  0  0  0
  6  7  1  0  0  0
  7  8  1  0  0  0
  8  9  1  0  0  0
 11 10  1  0  0  0
 11 14  1  0  0  0
 12 11  1  0  0  0
 12 13  2  0  0  0
 14 15  1  0  0  0
 15 16  2  0  0  0
 15 17  1  0  0  0
 17 20  4  0  0  0
 17 19  4  0  0  0
 19 21  4  0  0  0
 19 18  1  0  0  0
 16 18  1  0  0  0
 21 23  4  0  0  0
 22 23  4  0  0  0
 20 22  4  0  0  0
 10  3  1  0  0  0
 24 25  1  0  0  0
 25 28  1  0  0  0
 25 26  1  0  0  0
 26 27  1  0  0  0
 26 33  2  0  0  0
 28 29  1  0  0  0
 29 30  1  0  0  0
 30 31  1  0  0  0
 31 32  1  0  0  0
 12 24  1  0  0  0
  1 34  1  0  0  0
  2 35  1  0  0  0
  5 36  1  0  0  0
  5 37  1  0  0  0
  6 38  1  0  0  0
  6 39  1  0  0  0
  7 40  1  0  0  0
  7 41  1  0  0  0
  8 42  1  0  0  0
  8 43  1  0  0  0
  9 44  1  0  0  0
  9 45  1  0  0  0
  9 46  1  0  0  0
 10 47  1  0  0  0
 11 48  1  0  0  0
 14 49  1  0  0  0
 14 50  1  0  0  0
 16 51  1  0  0  0
 18 52  1  0  0  0
 20 53  1  0  0  0
 21 54  1  0  0  0
 22 55  1  0  0  0
 23 56  1  0  0  0
 24 57  1  0  0  0
 25 58  1  0  0  0
 28 59  1  0  0  0
 28 60  1  0  0  0
 29 61  1  0  0  0
 29 62  1  0  0  0
 30 63  1  0  0  0
 30 64  1  0  0  0
 31 65  1  0  0  0
 31 66  1  0  0  0
 32 67  1  0  0  0
 32 68  1  0  0  0
 32 69  1  0  0  0
  1 70  1  0  0  0
  1 71  1  0  0  0
M  END
$$$$
