### 
### Created by X-TOOL on Mon Oct 24 21:53:18 2005
### 

@<TRIPOS>MOLECULE
1jev_ligand
   71    72     1     0     0
SMALL
GAST_HUCK


@<TRIPOS>ATOM
      1 N           6.8620   16.6290   15.1970 N.4       1 SUB1        0.238
      2 CA          6.3920   17.9340   14.6200 C.3       1 SUB1        0.065
      3 C           5.1030   18.3620   15.3010 C.2       1 SUB1        0.227
      4 O           4.3370   17.5010   15.7230 O.2       1 SUB1       -0.391
      5 CB          6.2400   17.8330   13.1120 C.3       1 SUB1        0.008
      6 CG          5.3540   16.6850   12.6460 C.3       1 SUB1       -0.041
      7 CD          5.3180   16.6000   11.1250 C.3       1 SUB1       -0.012
      8 CE          6.6030   15.9860   10.5700 C.3       1 SUB1       -0.035
      9 NZ          6.7150   14.5550   10.9660 N.4       1 SUB1        0.219
     10 N           4.8910   19.6600   15.4540 N.am      1 SUB1       -0.260
     11 CA          3.6920   20.1550   16.1270 C.3       1 SUB1        0.135
     12 C           2.4620   20.0900   15.2250 C.2       1 SUB1        0.206
     13 O           2.5160   20.3800   14.0430 O.2       1 SUB1       -0.394
     14 CB          3.8860   21.6000   16.6060 C.3       1 SUB1        0.004
     15 CG          4.9530   21.7050   17.6590 C.2       1 SUB1       -0.042
     16 CD1         6.1460   22.3450   17.5650 C.2       1 SUB1        0.017
     17 CD2         4.9170   21.1080   18.9620 C.ar      1 SUB1       -0.021
     18 NE1         6.8600   22.1910   18.7300 N.pl3     1 SUB1       -0.289
     19 CE2         6.1270   21.4330   19.6020 C.ar      1 SUB1        0.060
     20 CE3         3.9680   20.3360   19.6490 C.ar      1 SUB1       -0.075
     21 CZ2         6.4170   21.0100   20.9010 C.ar      1 SUB1       -0.044
     22 CZ3         4.2640   19.9040   20.9250 C.ar      1 SUB1       -0.079
     23 CH2         5.4830   20.2430   21.5420 C.ar      1 SUB1       -0.077
     24 N           1.3330   19.6990   15.8410 N.am      1 SUB1       -0.268
     25 CA          0.0750   19.6230   15.1390 C.3       1 SUB1        0.081
     26 C          -1.0010   20.4270   15.8820 C.2       1 SUB1        0.053
     27 O          -1.9790   20.8010   15.1960 O.co2     1 SUB1       -0.564
     28 CB         -0.4160   18.1660   15.0560 C.3       1 SUB1       -0.018
     29 CG         -1.4650   18.0070   13.9580 C.3       1 SUB1       -0.043
     30 CD         -2.3620   16.8230   14.1800 C.3       1 SUB1       -0.012
     31 CE         -3.4910   16.8170   13.1640 C.3       1 SUB1       -0.035
     32 NZ         -2.9740   16.8470   11.7710 N.4       1 SUB1        0.219
     33 OXT        -0.8210   20.6520   17.0920 O.co2     1 SUB1       -0.564
     34 H11         6.2289   16.3360   15.9246 H         1 SUB1        0.201
     35 H21         7.1554   18.6977   14.8294 H         1 SUB1        0.110
     36 H51         7.2395   17.6964   12.6735 H         1 SUB1        0.035
     37 H52         5.8046   18.7745   12.7459 H         1 SUB1        0.035
     38 H61         4.3323   16.8451   13.0208 H         1 SUB1        0.027
     39 H62         5.7485   15.7406   13.0491 H         1 SUB1        0.027
     40 H71         5.1982   17.6127   10.7127 H         1 SUB1        0.032
     41 H72         4.4636   15.9772   10.8215 H         1 SUB1        0.032
     42 H81         7.4678   16.5390   10.9654 H         1 SUB1        0.081
     43 H82         6.5928   16.0574    9.4724 H         1 SUB1        0.081
     44 H91         6.7373   14.4854   11.9713 H         1 SUB1        0.199
     45 H92         7.5624   14.1658   10.5834 H         1 SUB1        0.199
     46 H93         5.9211   14.0451   10.6114 H         1 SUB1        0.199
     47 H101        5.5626   20.3125   15.1031 H         1 SUB1        0.189
     48 H111        3.5100   19.5181   17.0052 H         1 SUB1        0.082
     49 H141        2.9368   21.9660   17.0244 H         1 SUB1        0.040
     50 H142        4.1725   22.2238   15.7465 H         1 SUB1        0.040
     51 H161        6.4884   22.9003   16.6930 H         1 SUB1        0.079
     52 H181        7.7944   22.5825   18.9160 H         1 SUB1        0.222
     53 H201        3.0208   20.0840   19.1860 H         1 SUB1        0.054
     54 H211        7.3491   21.2798   21.3842 H         1 SUB1        0.054
     55 H221        3.5464   19.2936   21.4613 H         1 SUB1        0.051
     56 H231        5.6859   19.8888   22.5462 H         1 SUB1        0.053
     57 H241        1.3660   19.4547   16.8101 H         1 SUB1        0.190
     58 H251        0.2055   20.0273   14.1244 H         1 SUB1        0.078
     59 H281       -0.8587   17.8794   16.0213 H         1 SUB1        0.032
     60 H282        0.4388   17.5097   14.8354 H         1 SUB1        0.032
     61 H291       -0.9495   17.8821   12.9943 H         1 SUB1        0.027
     62 H292       -2.0834   18.9162   13.9278 H         1 SUB1        0.027
     63 H301       -2.7866   16.8747   15.1934 H         1 SUB1        0.032
     64 H302       -1.7750   15.8987   14.0752 H         1 SUB1        0.032
     65 H311       -4.1242   17.7013   13.3288 H         1 SUB1        0.081
     66 H312       -4.0910   15.9055   13.3025 H         1 SUB1        0.081
     67 H321       -2.4349   17.6871   11.6307 H         1 SUB1        0.199
     68 H322       -3.7477   16.8325   11.1250 H         1 SUB1        0.199
     69 H323       -2.3888   16.0418   11.6124 H         1 SUB1        0.199
     70 H12         7.7861   16.7454   15.5825 H         1 SUB1        0.201
     71 H13         6.8863   15.9300   14.4712 H         1 SUB1        0.201
@<TRIPOS>BOND
     1    2    1 1  
     2    2    5 1  
     3    3    2 1  
     4    3    4 2  
     5    5    6 1  
     6    6    7 1  
     7    7    8 1  
     8    8    9 1  
     9   11   10 1  
    10   11   14 1  
    11   12   11 1  
    12   12   13 2  
    13   14   15 1  
    14   15   16 2  
    15   15   17 1  
    16   17   20 ar 
    17   17   19 ar 
    18   19   21 ar 
    19   19   18 1  
    20   16   18 1  
    21   21   23 ar 
    22   22   23 ar 
    23   20   22 ar 
    24   10    3 am 
    25   24   25 1  
    26   25   28 1  
    27   25   26 1  
    28   26   27 2  
    29   26   33 2  
    30   28   29 1  
    31   29   30 1  
    32   30   31 1  
    33   31   32 1  
    34   12   24 am 
    35    1   34 1  
    36    2   35 1  
    37    5   36 1  
    38    5   37 1  
    39    6   38 1  
    40    6   39 1  
    41    7   40 1  
    42    7   41 1  
    43    8   42 1  
    44    8   43 1  
    45    9   44 1  
    46    9   45 1  
    47    9   46 1  
    48   10   47 1  
    49   11   48 1  
    50   14   49 1  
    51   14   50 1  
    52   16   51 1  
    53   18   52 1  
    54   20   53 1  
    55   21   54 1  
    56   22   55 1  
    57   23   56 1  
    58   24   57 1  
    59   25   58 1  
    60   28   59 1  
    61   28   60 1  
    62   29   61 1  
    63   29   62 1  
    64   30   63 1  
    65   30   64 1  
    66   31   65 1  
    67   31   66 1  
    68   32   67 1  
    69   32   68 1  
    70   32   69 1  
    71    1   70 1  
    72    1   71 1  
@<TRIPOS>SUBSTRUCTURE
     1 SUB1        1 GROUP

