### 
### Created by X-TOOL on Sun Jun  3 12:36:53 2007
### 

@<TRIPOS>MOLECULE
2gvj_ligand
   58    60     1     0     0
SMALL
GAST_HUCK


@<TRIPOS>ATOM
      1 CAK         4.8840   -1.6460   51.0300 C.ar      1 SUB1       -0.042
      2 CAF         3.5440   -1.4970   50.6700 C.ar      1 SUB1       -0.056
      3 CAE         2.9630   -2.3650   49.7450 C.ar      1 SUB1       -0.058
      4 CAG         3.7200   -3.3940   49.1820 C.ar      1 SUB1       -0.056
      5 CAL         5.0560   -3.5480   49.5480 C.ar      1 SUB1       -0.042
      6 CBA         5.6430   -2.6730   50.4670 C.ar      1 SUB1        0.050
      7 CAY         7.0920   -2.8540   50.8480 C.2       1 SUB1        0.207
      8 OAB         7.3380   -3.3360   51.9430 O.2       1 SUB1       -0.384
      9 NBC         8.0700   -2.5100   49.9910 N.am      1 SUB1       -0.272
     10 CAU         7.7760   -1.9150   48.6840 C.3       1 SUB1        0.034
     11 CAS         8.3010   -2.8720   47.6190 C.3       1 SUB1       -0.030
     12 CAT         9.5050   -2.6700   50.3010 C.3       1 SUB1        0.034
     13 CAR        10.1270   -3.5430   49.1930 C.3       1 SUB1       -0.030
     14 CBB         9.8150   -3.0360   47.7720 C.3       1 SUB1       -0.037
     15 CAQ        10.3620   -3.9470   46.6560 C.3       1 SUB1       -0.050
     16 CAO         9.6730   -5.3100   46.5340 C.3       1 SUB1       -0.051
     17 CAN         9.9790   -5.9430   45.1800 C.3       1 SUB1       -0.033
     18 CAP        10.2550   -7.4490   45.2070 C.3       1 SUB1        0.030
     19 NAW        10.5650   -7.7430   43.8110 N.am      1 SUB1       -0.288
     20 CAX         9.8840   -8.4410   42.9040 C.2       1 SUB1        0.195
     21 OAA         8.8130   -8.9980   43.1370 O.2       1 SUB1       -0.389
     22 CAC        10.4590   -8.5040   41.6870 C.2       1 SUB1        0.015
     23 CAD         9.8870   -9.1680   40.6740 C.2       1 SUB1       -0.030
     24 CAZ        10.4790   -9.2500   39.3150 C.ar      1 SUB1        0.012
     25 CAJ        11.6920   -8.6300   39.0030 C.ar      1 SUB1       -0.032
     26 CAH        12.2020   -8.7460   37.7120 C.ar      1 SUB1       -0.031
     27 CAI        11.4730   -9.4650   36.7630 C.ar      1 SUB1        0.013
     28 NAV        10.3110  -10.0620   37.0780 N.ar      1 SUB1       -0.293
     29 CAM         9.8080   -9.9660   38.3220 C.ar      1 SUB1        0.022
     30 H           5.3364   -0.9625   51.7485 H         1 SUB1        0.067
     31 H           2.9486   -0.6989   51.1134 H         1 SUB1        0.063
     32 H           1.9179   -2.2397   49.4619 H         1 SUB1        0.065
     33 H           3.2683   -4.0738   48.4595 H         1 SUB1        0.063
     34 H           5.6467   -4.3554   49.1152 H         1 SUB1        0.067
     35 H           8.2550   -0.9403   48.5914 H         1 SUB1        0.052
     36 H           6.7031   -1.7633   48.5659 H         1 SUB1        0.052
     37 H           8.0798   -2.4686   46.6308 H         1 SUB1        0.029
     38 H           7.8192   -3.8426   47.7370 H         1 SUB1        0.029
     39 H           9.6331   -3.1431   51.2746 H         1 SUB1        0.052
     40 H           9.9963   -1.6977   50.3396 H         1 SUB1        0.052
     41 H           9.7054   -4.5439   49.2860 H         1 SUB1        0.029
     42 H          11.2091   -3.5181   49.3219 H         1 SUB1        0.029
     43 H          10.3233   -2.0787   47.6565 H         1 SUB1        0.030
     44 H          11.4070   -4.1438   46.8954 H         1 SUB1        0.027
     45 H          10.1941   -3.4249   45.7140 H         1 SUB1        0.027
     46 H           8.5956   -5.1720   46.6254 H         1 SUB1        0.027
     47 H          10.0416   -5.9654   47.3231 H         1 SUB1        0.027
     48 H          10.8874   -5.4664   44.8116 H         1 SUB1        0.029
     49 H           9.0927   -5.7998   44.5618 H         1 SUB1        0.029
     50 H           9.4140   -8.0289   45.5872 H         1 SUB1        0.052
     51 H          11.0610   -7.7216   45.8883 H         1 SUB1        0.052
     52 H          11.4450   -7.3506   43.4764 H         1 SUB1        0.184
     53 H          11.4127   -8.0025   41.5229 H         1 SUB1        0.070
     54 H           8.9389   -9.6737   40.8567 H         1 SUB1        0.076
     55 H          12.2324   -8.0626   39.7607 H         1 SUB1        0.076
     56 H          13.1530   -8.2838   37.4475 H         1 SUB1        0.071
     57 H          11.8544   -9.5438   35.7450 H         1 SUB1        0.084
     58 H           8.8626  -10.4545   38.5581 H         1 SUB1        0.086
@<TRIPOS>BOND
     1    1    2 ar 
     2    1    6 ar 
     3    2    3 ar 
     4    3    4 ar 
     5    4    5 ar 
     6    5    6 ar 
     7    6    7 1  
     8    7    8 2  
     9    7    9 am 
    10    9   10 1  
    11    9   12 1  
    12   10   11 1  
    13   11   14 1  
    14   12   13 1  
    15   13   14 1  
    16   14   15 1  
    17   15   16 1  
    18   16   17 1  
    19   17   18 1  
    20   18   19 1  
    21   19   20 am 
    22   20   21 2  
    23   20   22 1  
    24   22   23 2  
    25   23   24 1  
    26   24   25 ar 
    27   24   29 ar 
    28   25   26 ar 
    29   26   27 ar 
    30   27   28 ar 
    31   28   29 ar 
    32    1   30 1  
    33    2   31 1  
    34    3   32 1  
    35    4   33 1  
    36    5   34 1  
    37   10   35 1  
    38   10   36 1  
    39   11   37 1  
    40   11   38 1  
    41   12   39 1  
    42   12   40 1  
    43   13   41 1  
    44   13   42 1  
    45   14   43 1  
    46   15   44 1  
    47   15   45 1  
    48   16   46 1  
    49   16   47 1  
    50   17   48 1  
    51   17   49 1  
    52   18   50 1  
    53   18   51 1  
    54   19   52 1  
    55   22   53 1  
    56   23   54 1  
    57   25   55 1  
    58   26   56 1  
    59   27   57 1  
    60   29   58 1  
@<TRIPOS>SUBSTRUCTURE
     1 SUB1        1 GROUP

