2gvj_ligand
  -I-interpret- 

 58 60  0  0  0  0  0  0  0  0999 V2000
    4.8840   -1.6460   51.0300 C   0  0  0  0  0
    3.5440   -1.4970   50.6700 C   0  0  0  0  0
    2.9630   -2.3650   49.7450 C   0  0  0  0  0
    3.7200   -3.3940   49.1820 C   0  0  0  0  0
    5.0560   -3.5480   49.5480 C   0  0  0  0  0
    5.6430   -2.6730   50.4670 C   0  0  0  0  0
    7.0920   -2.8540   50.8480 C   0  0  0  0  0
    7.3380   -3.3360   51.9430 O   0  0  0  0  0
    8.0700   -2.5100   49.9910 N   0  0  0  0  0
    7.7760   -1.9150   48.6840 C   0  0  0  0  0
    8.3010   -2.8720   47.6190 C   0  0  0  0  0
    9.5050   -2.6700   50.3010 C   0  0  0  0  0
   10.1270   -3.5430   49.1930 C   0  0  0  0  0
    9.8150   -3.0360   47.7720 C   0  0  0  0  0
   10.3620   -3.9470   46.6560 C   0  0  0  0  0
    9.6730   -5.3100   46.5340 C   0  0  0  0  0
    9.9790   -5.9430   45.1800 C   0  0  0  0  0
   10.2550   -7.4490   45.2070 C   0  0  0  0  0
   10.5650   -7.7430   43.8110 N   0  0  0  0  0
    9.8840   -8.4410   42.9040 C   0  0  0  0  0
    8.8130   -8.9980   43.1370 O   0  0  0  0  0
   10.4590   -8.5040   41.6870 C   0  0  0  0  0
    9.8870   -9.1680   40.6740 C   0  0  0  0  0
   10.4790   -9.2500   39.3150 C   0  0  0  0  0
   11.6920   -8.6300   39.0030 C   0  0  0  0  0
   12.2020   -8.7460   37.7120 C   0  0  0  0  0
   11.4730   -9.4650   36.7630 C   0  0  0  0  0
   10.3110  -10.0620   37.0780 N   0  0  0  0  0
    9.8080   -9.9660   38.3220 C   0  0  0  0  0
    5.3364   -0.9625   51.7485 H   0  0  0  0  0
    2.9486   -0.6989   51.1134 H   0  0  0  0  0
    1.9179   -2.2397   49.4619 H   0  0  0  0  0
    3.2683   -4.0738   48.4595 H   0  0  0  0  0
    5.6467   -4.3554   49.1152 H   0  0  0  0  0
    8.2550   -0.9403   48.5914 H   0  0  0  0  0
    6.7031   -1.7633   48.5659 H   0  0  0  0  0
    8.0798   -2.4686   46.6308 H   0  0  0  0  0
    7.8192   -3.8426   47.7370 H   0  0  0  0  0
    9.6331   -3.1431   51.2746 H   0  0  0  0  0
    9.9963   -1.6977   50.3396 H   0  0  0  0  0
    9.7054   -4.5439   49.2860 H   0  0  0  0  0
   11.2091   -3.5181   49.3219 H   0  0  0  0  0
   10.3233   -2.0787   47.6565 H   0  0  0  0  0
   11.4070   -4.1438   46.8954 H   0  0  0  0  0
   10.1941   -3.4249   45.7140 H   0  0  0  0  0
    8.5956   -5.1720   46.6254 H   0  0  0  0  0
   10.0416   -5.9654   47.3231 H   0  0  0  0  0
   10.8874   -5.4664   44.8116 H   0  0  0  0  0
    9.0927   -5.7998   44.5618 H   0  0  0  0  0
    9.4140   -8.0289   45.5872 H   0  0  0  0  0
   11.0610   -7.7216   45.8883 H   0  0  0  0  0
   11.4450   -7.3506   43.4764 H   0  0  0  0  0
   11.4127   -8.0025   41.5229 H   0  0  0  0  0
    8.9389   -9.6737   40.8567 H   0  0  0  0  0
   12.2324   -8.0626   39.7607 H   0  0  0  0  0
   13.1530   -8.2838   37.4475 H   0  0  0  0  0
   11.8544   -9.5438   35.7450 H   0  0  0  0  0
    8.8626  -10.4545   38.5581 H   0  0  0  0  0
  1  2  4  0  0  0
  1  6  4  0  0  0
  2  3  4  0  0  0
  3  4  4  0  0  0
  4  5  4  0  0  0
  5  6  4  0  0  0
  6  7  1  0  0  0
  7  8  2  0  0  0
  7  9  1  0  0  0
  9 10  1  0  0  0
  9 12  1  0  0  0
 10 11  1  0  0  0
 11 14  1  0  0  0
 12 13  1  0  0  0
 13 14  1  0  0  0
 14 15  1  0  0  0
 15 16  1  0  0  0
 16 17  1  0  0  0
 17 18  1  0  0  0
 18 19  1  0  0  0
 19 20  1  0  0  0
 20 21  2  0  0  0
 20 22  1  0  0  0
 22 23  2  0  0  0
 23 24  1  0  0  0
 24 25  4  0  0  0
 24 29  4  0  0  0
 25 26  4  0  0  0
 26 27  4  0  0  0
 27 28  4  0  0  0
 28 29  4  0  0  0
  1 30  1  0  0  0
  2 31  1  0  0  0
  3 32  1  0  0  0
  4 33  1  0  0  0
  5 34  1  0  0  0
 10 35  1  0  0  0
 10 36  1  0  0  0
 11 37  1  0  0  0
 11 38  1  0  0  0
 12 39  1  0  0  0
 12 40  1  0  0  0
 13 41  1  0  0  0
 13 42  1  0  0  0
 14 43  1  0  0  0
 15 44  1  0  0  0
 15 45  1  0  0  0
 16 46  1  0  0  0
 16 47  1  0  0  0
 17 48  1  0  0  0
 17 49  1  0  0  0
 18 50  1  0  0  0
 18 51  1  0  0  0
 19 52  1  0  0  0
 22 53  1  0  0  0
 23 54  1  0  0  0
 25 55  1  0  0  0
 26 56  1  0  0  0
 27 57  1  0  0  0
 29 58  1  0  0  0
M  END
$$$$
