1d7j_ligand
  -I-interpret- 

 14 13  0  0  0  0  0  0  0  0999 V2000
   60.8117   -7.1608   -1.9019 H   0  0  0  0  0
   61.7544   -5.6794   -2.2802 H   0  0  0  0  0
   59.9729   -5.6933   -2.5097 H   0  0  0  0  0
   61.5425   -3.7834    0.2453 H   0  0  0  0  0
   59.7933   -3.9284    0.6274 H   0  0  0  0  0
   61.0906   -3.2641   -2.0345 H   0  0  0  0  0
   60.0816   -2.1995   -0.9976 H   0  0  0  0  0
   58.9829   -2.9581   -2.8438 H   0  0  0  0  0
   60.8010   -6.0610   -1.8860 C   0  0  0  0  0
   60.6140   -5.5790   -0.4640 C   0  0  0  0  0
   60.4980   -6.4210    0.4290 O   0  0  0  0  0
   60.5610   -4.0930   -0.1430 C   0  0  0  0  0
   60.2240   -3.2290   -1.3580 C   0  0  0  0  0
   59.0760   -3.5710   -2.1240 O   0  0  0  0  0
  9  1  1  0  0  0
  9  2  1  0  0  0
  9  3  1  0  0  0
 12  4  1  0  0  0
 12  5  1  0  0  0
 13  6  1  0  0  0
 13  7  1  0  0  0
 14  8  1  0  0  0
 10  9  1  0  0  0
 12 10  1  0  0  0
 10 11  2  0  0  0
 13 12  1  0  0  0
 13 14  1  0  0  0
M  END
$$$$
