### 
### Created by X-TOOL on Mon Oct 24 22:51:10 2005
### 

@<TRIPOS>MOLECULE
1d7j_ligand
   14    13     1     0     0
SMALL
GAST_HUCK


@<TRIPOS>ATOM
      1 H91        60.8117   -7.1608   -1.9019 H         1 SUB1        0.046
      2 H92        61.7544   -5.6794   -2.2802 H         1 SUB1        0.046
      3 H93        59.9729   -5.6933   -2.5097 H         1 SUB1        0.046
      4 H121       61.5425   -3.7834    0.2453 H         1 SUB1        0.052
      5 H122       59.7933   -3.9284    0.6274 H         1 SUB1        0.052
      6 H131       61.0906   -3.2641   -2.0345 H         1 SUB1        0.058
      7 H132       60.0816   -2.1995   -0.9976 H         1 SUB1        0.058
      8 H141       58.9829   -2.9581   -2.8438 H         1 SUB1        0.210
      9 C1         60.8010   -6.0610   -1.8860 C.3       1 SUB1        0.009
     10 C2         60.6140   -5.5790   -0.4640 C.2       1 SUB1        0.104
     11 O2         60.4980   -6.4210    0.4290 O.2       1 SUB1       -0.392
     12 C3         60.5610   -4.0930   -0.1430 C.3       1 SUB1        0.044
     13 C4         60.2240   -3.2290   -1.3580 C.3       1 SUB1        0.060
     14 O5         59.0760   -3.5710   -2.1240 O.3       1 SUB1       -0.393
@<TRIPOS>BOND
     1    9    1 1  
     2    9    2 1  
     3    9    3 1  
     4   12    4 1  
     5   12    5 1  
     6   13    6 1  
     7   13    7 1  
     8   14    8 1  
     9   10    9 1  
    10   12   10 1  
    11   10   11 2  
    12   13   12 1  
    13   13   14 1  
@<TRIPOS>SUBSTRUCTURE
     1 SUB1        1 GROUP

