### 
### Created by X-TOOL on Mon Oct 24 23:18:32 2005
### 

@<TRIPOS>MOLECULE
1i9p_ligand
   34    35     1     0     0
SMALL
GAST_HUCK


@<TRIPOS>ATOM
      1 H31        -2.8240    1.7715   14.4322 H         1 SUB1        0.067
      2 H41        -3.4100   -0.2553   15.7462 H         1 SUB1        0.065
      3 C01        -3.8510    1.6170   14.7430 C.ar      1 SUB1       -0.040
      4 C02        -4.1800    0.4630   15.4890 C.ar      1 SUB1       -0.030
      5 C03        -5.5540    0.2410   15.9110 C.ar      1 SUB1        0.112
      6 C04        -6.5050    1.2040   15.5580 C.ar      1 SUB1       -0.030
      7 C05        -6.1370    2.3520   14.8100 C.ar      1 SUB1       -0.040
      8 C06        -4.8310    2.5760   14.3920 C.ar      1 SUB1        0.050
      9 C07        -4.4640    3.8270   13.5640 C.2       1 SUB1        0.206
     10 O08        -5.4180    4.6030   13.2970 O.2       1 SUB1       -0.384
     11 N09        -3.1290    4.1660   13.0660 N.am      1 SUB1       -0.277
     12 C10        -2.3080    4.9940   13.9390 C.3       1 SUB1        0.064
     13 S11        -5.9440   -1.2630   16.8650 S.o2      1 SUB1        0.068
     14 NP2        -5.3910   -2.7190   16.1190 N.am      1 SUB1       -0.261
     15 O13        -7.4090   -1.0910   17.0270 O.2       1 SUB1       -0.150
     16 O14        -5.3240   -0.9270   18.1850 O.2       1 SUB1       -0.150
     17 C15        -2.5470    6.3760   14.1340 C.ar      1 SUB1        0.042
     18 C16        -3.4810    7.1050   13.2430 C.ar      1 SUB1        0.132
     19 C17        -3.6960    8.5470   13.4920 C.ar      1 SUB1       -0.005
     20 C18        -3.0030    9.2390   14.5910 C.ar      1 SUB1        0.122
     21 C19        -2.0840    8.4920   15.4510 C.ar      1 SUB1       -0.005
     22 C20        -1.8530    7.0760   15.2350 C.ar      1 SUB1        0.132
     23 F21        -0.9930    6.3940   16.0510 F         1 SUB1       -0.191
     24 F22        -3.2140   10.5740   14.8050 F         1 SUB1       -0.191
     25 F23        -4.1280    6.4780   12.2160 F         1 SUB1       -0.191
     26 H61        -7.5376    1.0713   15.8601 H         1 SUB1        0.065
     27 H71        -6.9002    3.0787   14.5561 H         1 SUB1        0.067
     28 H111       -2.7999    3.8471   12.1772 H         1 SUB1        0.187
     29 H121       -1.2803    4.9147   13.5548 H         1 SUB1        0.066
     30 H122       -2.3635    4.5325   14.9359 H         1 SUB1        0.066
     31 H141       -5.5558   -3.6078   16.5649 H         1 SUB1        0.163
     32 H191       -4.3745    9.1030   12.8552 H         1 SUB1        0.054
     33 H211       -1.5705    9.0021   16.2579 H         1 SUB1        0.054
     34 H142       -4.9073   -2.6803   15.2446 H         1 SUB1        0.163
@<TRIPOS>BOND
     1    3    8 ar 
     2    3    4 ar 
     3    4    5 ar 
     4    5   13 1  
     5    5    6 ar 
     6    6    7 ar 
     7    7    8 ar 
     8    8    9 1  
     9    9   11 am 
    10    9   10 2  
    11   11   12 1  
    12   12   17 1  
    13   17   22 ar 
    14   17   18 ar 
    15   18   19 ar 
    16   19   20 ar 
    17   20   21 ar 
    18   21   22 ar 
    19   13   16 2  
    20   13   15 2  
    21   13   14 1  
    22   20   24 1  
    23   18   25 1  
    24   22   23 1  
    25    3    1 1  
    26    4    2 1  
    27    6   26 1  
    28    7   27 1  
    29   11   28 1  
    30   12   29 1  
    31   12   30 1  
    32   14   31 1  
    33   19   32 1  
    34   21   33 1  
    35   14   34 1  
@<TRIPOS>SUBSTRUCTURE
     1 SUB1        1 GROUP

