1i9p_ligand
  -I-interpret- 

 34 35  0  0  0  0  0  0  0  0999 V2000
   -2.8240    1.7715   14.4322 H   0  0  0  0  0
   -3.4100   -0.2553   15.7462 H   0  0  0  0  0
   -3.8510    1.6170   14.7430 C   0  0  0  0  0
   -4.1800    0.4630   15.4890 C   0  0  0  0  0
   -5.5540    0.2410   15.9110 C   0  0  0  0  0
   -6.5050    1.2040   15.5580 C   0  0  0  0  0
   -6.1370    2.3520   14.8100 C   0  0  0  0  0
   -4.8310    2.5760   14.3920 C   0  0  0  0  0
   -4.4640    3.8270   13.5640 C   0  0  0  0  0
   -5.4180    4.6030   13.2970 O   0  0  0  0  0
   -3.1290    4.1660   13.0660 N   0  0  0  0  0
   -2.3080    4.9940   13.9390 C   0  0  0  0  0
   -5.9440   -1.2630   16.8650 S   0  0  0  0  0
   -5.3910   -2.7190   16.1190 N   0  0  0  0  0
   -7.4090   -1.0910   17.0270 O   0  0  0  0  0
   -5.3240   -0.9270   18.1850 O   0  0  0  0  0
   -2.5470    6.3760   14.1340 C   0  0  0  0  0
   -3.4810    7.1050   13.2430 C   0  0  0  0  0
   -3.6960    8.5470   13.4920 C   0  0  0  0  0
   -3.0030    9.2390   14.5910 C   0  0  0  0  0
   -2.0840    8.4920   15.4510 C   0  0  0  0  0
   -1.8530    7.0760   15.2350 C   0  0  0  0  0
   -0.9930    6.3940   16.0510 F   0  0  0  0  0
   -3.2140   10.5740   14.8050 F   0  0  0  0  0
   -4.1280    6.4780   12.2160 F   0  0  0  0  0
   -7.5376    1.0713   15.8601 H   0  0  0  0  0
   -6.9002    3.0787   14.5561 H   0  0  0  0  0
   -2.7999    3.8471   12.1772 H   0  0  0  0  0
   -1.2803    4.9147   13.5548 H   0  0  0  0  0
   -2.3635    4.5325   14.9359 H   0  0  0  0  0
   -5.5558   -3.6078   16.5649 H   0  0  0  0  0
   -4.3745    9.1030   12.8552 H   0  0  0  0  0
   -1.5705    9.0021   16.2579 H   0  0  0  0  0
   -4.9073   -2.6803   15.2446 H   0  0  0  0  0
  3  8  4  0  0  0
  3  4  4  0  0  0
  4  5  4  0  0  0
  5 13  1  0  0  0
  5  6  4  0  0  0
  6  7  4  0  0  0
  7  8  4  0  0  0
  8  9  1  0  0  0
  9 11  1  0  0  0
  9 10  2  0  0  0
 11 12  1  0  0  0
 12 17  1  0  0  0
 17 22  4  0  0  0
 17 18  4  0  0  0
 18 19  4  0  0  0
 19 20  4  0  0  0
 20 21  4  0  0  0
 21 22  4  0  0  0
 13 16  2  0  0  0
 13 15  2  0  0  0
 13 14  1  0  0  0
 20 24  1  0  0  0
 18 25  1  0  0  0
 22 23  1  0  0  0
  3  1  1  0  0  0
  4  2  1  0  0  0
  6 26  1  0  0  0
  7 27  1  0  0  0
 11 28  1  0  0  0
 12 29  1  0  0  0
 12 30  1  0  0  0
 14 31  1  0  0  0
 19 32  1  0  0  0
 21 33  1  0  0  0
 14 34  1  0  0  0
M  END
$$$$
