### 
### Created by X-TOOL on Mon Oct 24 23:07:12 2005
### 

@<TRIPOS>MOLECULE
1jd5_ligand
  128   130     1     0     0
SMALL
GAST_HUCK


@<TRIPOS>ATOM
      1 N          10.8260   42.4210   12.8100 N.4       1 SUB1        0.238
      2 CA          9.5190   42.4860   13.5020 C.3       1 SUB1        0.062
      3 C           8.4660   42.5250   12.4220 C.2       1 SUB1        0.226
      4 O           8.7790   42.7820   11.2630 O.2       1 SUB1       -0.391
      5 CB          9.4280   43.7460   14.3560 C.3       1 SUB1       -0.004
      6 N           7.2360   42.1960   12.7860 N.am      1 SUB1       -0.261
      7 CA          6.1410   42.2280   11.8320 C.3       1 SUB1        0.134
      8 C           5.1020   43.2110   12.3670 C.2       1 SUB1        0.204
      9 O           4.9090   43.3270   13.5850 O.2       1 SUB1       -0.394
     10 CB          5.4990   40.8270   11.6190 C.3       1 SUB1       -0.004
     11 CG1         4.8790   40.3180   12.9110 C.3       1 SUB1       -0.049
     12 CG2         6.5440   39.8190   11.1300 C.3       1 SUB1       -0.058
     13 CD1         4.1120   39.0330   12.7440 C.3       1 SUB1       -0.065
     14 N           4.4920   43.9700   11.4670 N.am      1 SUB1       -0.264
     15 CA          3.4860   44.9390   11.8600 C.3       1 SUB1        0.128
     16 C           2.1470   44.2310   11.9460 C.2       1 SUB1        0.204
     17 O           1.5560   43.8980   10.9230 O.2       1 SUB1       -0.394
     18 CB          3.4340   46.0760   10.8510 C.3       1 SUB1       -0.024
     19 N           1.6900   43.9570   13.1660 N.am      1 SUB1       -0.262
     20 CA          0.4110   43.2760   13.3360 C.3       1 SUB1        0.139
     21 C          -0.7730   44.2120   13.1070 C.2       1 SUB1        0.206
     22 O          -1.9120   43.7730   12.9180 O.2       1 SUB1       -0.394
     23 CB          0.3330   42.5510   14.6940 C.3       1 SUB1        0.016
     24 CG          0.2940   43.4100   15.9370 C.ar      1 SUB1       -0.049
     25 CD1        -0.9200   43.7400   16.5340 C.ar      1 SUB1       -0.068
     26 CD2         1.4690   43.7990   16.5780 C.ar      1 SUB1       -0.068
     27 CE1        -0.9650   44.4330   17.7470 C.ar      1 SUB1       -0.040
     28 CE2         1.4360   44.4940   17.7920 C.ar      1 SUB1       -0.040
     29 CZ          0.2150   44.8010   18.3720 C.ar      1 SUB1        0.080
     30 OH          0.1640   45.4420   19.5840 O.3       1 SUB1       -0.338
     31 N          -0.4880   45.5080   13.1150 N.am      1 SUB1       -0.262
     32 CA         -1.4870   46.5310   12.8700 C.3       1 SUB1        0.140
     33 C          -0.8100   47.7250   12.2290 C.2       1 SUB1        0.206
     34 O           0.1520   48.2760   12.7710 O.2       1 SUB1       -0.394
     35 CB         -2.1940   46.9710   14.1580 C.3       1 SUB1        0.021
     36 CG         -3.1490   48.1210   13.9520 C.ar      1 SUB1       -0.039
     37 CD1        -4.4340   47.8970   13.4590 C.ar      1 SUB1       -0.060
     38 CD2        -2.7440   49.4370   14.1860 C.ar      1 SUB1       -0.060
     39 CE1        -5.2980   48.9670   13.1970 C.ar      1 SUB1       -0.069
     40 CE2        -3.5960   50.5150   13.9300 C.ar      1 SUB1       -0.069
     41 CZ         -4.8730   50.2800   13.4330 C.ar      1 SUB1       -0.069
     42 N          -1.2940   48.0870   11.0440 N.am      1 SUB1       -0.263
     43 CA         -0.7840   49.2300   10.3070 C.3       1 SUB1        0.134
     44 C          -1.9600   50.1880   10.1600 C.2       1 SUB1        0.207
     45 O          -3.0320   49.7900    9.7120 O.2       1 SUB1       -0.394
     46 CB         -0.2540   48.8060    8.9130 C.3       1 SUB1       -0.004
     47 CG1         1.0500   48.0200    9.0850 C.3       1 SUB1       -0.049
     48 CG2        -0.0300   50.0280    8.0360 C.3       1 SUB1       -0.058
     49 CD1         1.6490   47.5160    7.7880 C.3       1 SUB1       -0.065
     50 N          -1.7920   51.4470   10.6090 N.am      1 SUB1       -0.250
     51 CA         -2.8270   52.4860   10.5440 C.3       1 SUB1        0.134
     52 C          -3.5980   52.4620    9.2210 C.2       1 SUB1        0.205
     53 O          -3.0220   52.6930    8.1610 O.2       1 SUB1       -0.394
     54 CB         -2.0180   53.7660   10.7170 C.3       1 SUB1       -0.010
     55 CG         -0.9780   53.3460   11.6960 C.3       1 SUB1       -0.028
     56 CD         -0.5370   52.0020   11.1570 C.3       1 SUB1        0.037
     57 N          -4.8740   52.0790    9.3220 N.am      1 SUB1       -0.265
     58 CA         -5.8440   51.9660    8.2230 C.3       1 SUB1        0.092
     59 C          -5.3800   52.3980    6.8300 C.2       1 SUB1        0.056
     60 O          -5.1260   51.5060    5.9850 O.co2     1 SUB1       -0.564
     61 CB         -7.1380   52.6910    8.6050 C.3       1 SUB1        0.021
     62 CG         -7.5220   52.4620   10.0550 C.2       1 SUB1        0.033
     63 OD1        -7.0830   53.2600   10.9140 O.co2     1 SUB1       -0.566
     64 OD2        -8.2250   51.4690   10.3450 O.co2     1 SUB1       -0.566
     65 O1         -5.2563   53.6178    6.5393 O.co2     1 SUB1       -0.564
     66 H11        10.6813   42.4687   11.8136 H         1 SUB1        0.201
     67 H21         9.3818   41.5994   14.1385 H         1 SUB1        0.109
     68 H51         9.5366   44.6326   13.7141 H         1 SUB1        0.031
     69 H52        10.2303   43.7377   15.1085 H         1 SUB1        0.031
     70 H53         8.4515   43.7766   14.8615 H         1 SUB1        0.031
     71 H61         7.0584   41.9216   13.7311 H         1 SUB1        0.189
     72 H71         6.5200   42.5872   10.8639 H         1 SUB1        0.080
     73 H101        4.7098   40.9166   10.8580 H         1 SUB1        0.034
     74 H111        4.1914   41.0866   13.2936 H         1 SUB1        0.027
     75 H112        5.6844   40.1503   13.6412 H         1 SUB1        0.027
     76 H121        6.9602   40.1588   10.1702 H         1 SUB1        0.023
     77 H122        6.0702   38.8353   10.9965 H         1 SUB1        0.023
     78 H123        7.3519   39.7391   11.8722 H         1 SUB1        0.023
     79 H131        3.2881   39.1877   12.0318 H         1 SUB1        0.023
     80 H132        3.7026   38.7213   13.7162 H         1 SUB1        0.023
     81 H133        4.7850   38.2513   12.3620 H         1 SUB1        0.023
     82 H141        4.7294   43.8729   10.5005 H         1 SUB1        0.188
     83 H151        3.7420   45.3507   12.8474 H         1 SUB1        0.080
     84 H181        3.1806   45.6744    9.8588 H         1 SUB1        0.028
     85 H182        4.4149   46.5717   10.8063 H         1 SUB1        0.028
     86 H183        2.6689   46.8042   11.1582 H         1 SUB1        0.028
     87 H191        2.2254   44.2190   13.9689 H         1 SUB1        0.189
     88 H201        0.3562   42.5006   12.5577 H         1 SUB1        0.082
     89 H231        1.2149   41.8980   14.7712 H         1 SUB1        0.045
     90 H232       -0.5791   41.9361   14.6885 H         1 SUB1        0.045
     91 H251       -1.8466   43.4544   16.0494 H         1 SUB1        0.053
     92 H261        2.4255   43.5588   16.1280 H         1 SUB1        0.053
     93 H271       -1.9195   44.6814   18.1968 H         1 SUB1        0.052
     94 H281        2.3596   44.7905   18.2759 H         1 SUB1        0.052
     95 H301        1.0474   45.6267   19.8807 H         1 SUB1        0.246
     96 H311        0.4536   45.7910   13.2973 H         1 SUB1        0.189
     97 H321       -2.2413   46.1282   12.1781 H         1 SUB1        0.082
     98 H351       -1.4305   47.2778   14.8880 H         1 SUB1        0.047
     99 H352       -2.7588   46.1151   14.5560 H         1 SUB1        0.047
    100 H371       -4.7680   46.8820   13.2764 H         1 SUB1        0.056
    101 H381       -1.7495   49.6260   14.5737 H         1 SUB1        0.056
    102 H391       -6.2939   48.7793   12.8122 H         1 SUB1        0.060
    103 H401       -3.2628   51.5292   14.1180 H         1 SUB1        0.060
    104 H411       -5.5380   51.1113   13.2287 H         1 SUB1        0.056
    105 H421       -2.0381   47.5512   10.6450 H         1 SUB1        0.188
    106 H431        0.0290   49.7103   10.8712 H         1 SUB1        0.080
    107 H461       -0.9997   48.1577    8.4297 H         1 SUB1        0.034
    108 H471        0.8472   47.1529    9.7307 H         1 SUB1        0.027
    109 H472        1.7861   48.6760    9.5726 H         1 SUB1        0.027
    110 H481       -0.9824   50.5615    7.9004 H         1 SUB1        0.023
    111 H482        0.3551   49.7103    7.0558 H         1 SUB1        0.023
    112 H483        0.6993   50.6961    8.5174 H         1 SUB1        0.023
    113 H491        0.9370   46.8384    7.2942 H         1 SUB1        0.023
    114 H492        2.5826   46.9748    8.0012 H         1 SUB1        0.023
    115 H493        1.8624   48.3688    7.1268 H         1 SUB1        0.023
    116 H511       -3.5440   52.3678   11.3697 H         1 SUB1        0.080
    117 H541       -2.6392   54.5801   11.1187 H         1 SUB1        0.031
    118 H542       -1.5661   54.0847    9.7661 H         1 SUB1        0.031
    119 H551       -1.4010   53.2485   12.7067 H         1 SUB1        0.029
    120 H552       -0.1409   54.0594   11.7161 H         1 SUB1        0.029
    121 H561       -0.1377   51.3640   11.9592 H         1 SUB1        0.052
    122 H562        0.2223   52.1196   10.3698 H         1 SUB1        0.052
    123 H571       -5.2023   51.8457   10.2373 H         1 SUB1        0.190
    124 H581       -6.0818   50.8953    8.1396 H         1 SUB1        0.081
    125 H611       -7.9516   52.3244    7.9619 H         1 SUB1        0.054
    126 H612       -6.9998   53.7701    8.4422 H         1 SUB1        0.054
    127 H12        11.2861   41.5546   13.0416 H         1 SUB1        0.201
    128 H13        11.4005   43.1955   13.1035 H         1 SUB1        0.201
@<TRIPOS>BOND
     1    3    2 1  
     2    2    5 1  
     3    2    1 1  
     4    3    4 2  
     5    8    7 1  
     6    7   10 1  
     7    7    6 1  
     8   10   11 1  
     9   10   12 1  
    10   11   13 1  
    11    8    9 2  
    12   16   15 1  
    13   15   18 1  
    14   15   14 1  
    15   16   17 2  
    16   21   20 1  
    17   20   23 1  
    18   20   19 1  
    19   23   24 1  
    20   24   26 ar 
    21   24   25 ar 
    22   25   27 ar 
    23   27   29 ar 
    24   29   30 1  
    25   28   29 ar 
    26   26   28 ar 
    27   21   22 2  
    28   33   32 1  
    29   32   35 1  
    30   32   31 1  
    31   35   36 1  
    32   36   38 ar 
    33   36   37 ar 
    34   37   39 ar 
    35   39   41 ar 
    36   40   41 ar 
    37   38   40 ar 
    38   33   34 2  
    39   44   43 1  
    40   43   46 1  
    41   43   42 1  
    42   46   47 1  
    43   46   48 1  
    44   47   49 1  
    45   44   45 2  
    46   51   50 1  
    47   51   54 1  
    48   52   51 1  
    49   52   53 2  
    50   54   55 1  
    51   55   56 1  
    52   50   56 1  
    53   58   59 1  
    54   58   61 1  
    55   57   58 1  
    56   61   62 1  
    57   62   63 2  
    58   62   64 2  
    59   59   60 2  
    60    6    3 am 
    61   14    8 am 
    62   19   16 am 
    63   31   21 am 
    64   42   33 am 
    65   50   44 am 
    66   52   57 am 
    67   59   65 2  
    68    1   66 1  
    69    2   67 1  
    70    5   68 1  
    71    5   69 1  
    72    5   70 1  
    73    6   71 1  
    74    7   72 1  
    75   10   73 1  
    76   11   74 1  
    77   11   75 1  
    78   12   76 1  
    79   12   77 1  
    80   12   78 1  
    81   13   79 1  
    82   13   80 1  
    83   13   81 1  
    84   14   82 1  
    85   15   83 1  
    86   18   84 1  
    87   18   85 1  
    88   18   86 1  
    89   19   87 1  
    90   20   88 1  
    91   23   89 1  
    92   23   90 1  
    93   25   91 1  
    94   26   92 1  
    95   27   93 1  
    96   28   94 1  
    97   30   95 1  
    98   31   96 1  
    99   32   97 1  
   100   35   98 1  
   101   35   99 1  
   102   37  100 1  
   103   38  101 1  
   104   39  102 1  
   105   40  103 1  
   106   41  104 1  
   107   42  105 1  
   108   43  106 1  
   109   46  107 1  
   110   47  108 1  
   111   47  109 1  
   112   48  110 1  
   113   48  111 1  
   114   48  112 1  
   115   49  113 1  
   116   49  114 1  
   117   49  115 1  
   118   51  116 1  
   119   54  117 1  
   120   54  118 1  
   121   55  119 1  
   122   55  120 1  
   123   56  121 1  
   124   56  122 1  
   125   57  123 1  
   126   58  124 1  
   127   61  125 1  
   128   61  126 1  
   129    1  127 1  
   130    1  128 1  
@<TRIPOS>SUBSTRUCTURE
     1 SUB1        1 GROUP

