1jd5_ligand
  -I-interpret- 

128130  0  0  0  0  0  0  0  0999 V2000
   10.8260   42.4210   12.8100 N   0  3  0  0  0
    9.5190   42.4860   13.5020 C   0  0  0  0  0
    8.4660   42.5250   12.4220 C   0  0  0  0  0
    8.7790   42.7820   11.2630 O   0  0  0  0  0
    9.4280   43.7460   14.3560 C   0  0  0  0  0
    7.2360   42.1960   12.7860 N   0  0  0  0  0
    6.1410   42.2280   11.8320 C   0  0  0  0  0
    5.1020   43.2110   12.3670 C   0  0  0  0  0
    4.9090   43.3270   13.5850 O   0  0  0  0  0
    5.4990   40.8270   11.6190 C   0  0  0  0  0
    4.8790   40.3180   12.9110 C   0  0  0  0  0
    6.5440   39.8190   11.1300 C   0  0  0  0  0
    4.1120   39.0330   12.7440 C   0  0  0  0  0
    4.4920   43.9700   11.4670 N   0  0  0  0  0
    3.4860   44.9390   11.8600 C   0  0  0  0  0
    2.1470   44.2310   11.9460 C   0  0  0  0  0
    1.5560   43.8980   10.9230 O   0  0  0  0  0
    3.4340   46.0760   10.8510 C   0  0  0  0  0
    1.6900   43.9570   13.1660 N   0  0  0  0  0
    0.4110   43.2760   13.3360 C   0  0  0  0  0
   -0.7730   44.2120   13.1070 C   0  0  0  0  0
   -1.9120   43.7730   12.9180 O   0  0  0  0  0
    0.3330   42.5510   14.6940 C   0  0  0  0  0
    0.2940   43.4100   15.9370 C   0  0  0  0  0
   -0.9200   43.7400   16.5340 C   0  0  0  0  0
    1.4690   43.7990   16.5780 C   0  0  0  0  0
   -0.9650   44.4330   17.7470 C   0  0  0  0  0
    1.4360   44.4940   17.7920 C   0  0  0  0  0
    0.2150   44.8010   18.3720 C   0  0  0  0  0
    0.1640   45.4420   19.5840 O   0  0  0  0  0
   -0.4880   45.5080   13.1150 N   0  0  0  0  0
   -1.4870   46.5310   12.8700 C   0  0  0  0  0
   -0.8100   47.7250   12.2290 C   0  0  0  0  0
    0.1520   48.2760   12.7710 O   0  0  0  0  0
   -2.1940   46.9710   14.1580 C   0  0  0  0  0
   -3.1490   48.1210   13.9520 C   0  0  0  0  0
   -4.4340   47.8970   13.4590 C   0  0  0  0  0
   -2.7440   49.4370   14.1860 C   0  0  0  0  0
   -5.2980   48.9670   13.1970 C   0  0  0  0  0
   -3.5960   50.5150   13.9300 C   0  0  0  0  0
   -4.8730   50.2800   13.4330 C   0  0  0  0  0
   -1.2940   48.0870   11.0440 N   0  0  0  0  0
   -0.7840   49.2300   10.3070 C   0  0  0  0  0
   -1.9600   50.1880   10.1600 C   0  0  0  0  0
   -3.0320   49.7900    9.7120 O   0  0  0  0  0
   -0.2540   48.8060    8.9130 C   0  0  0  0  0
    1.0500   48.0200    9.0850 C   0  0  0  0  0
   -0.0300   50.0280    8.0360 C   0  0  0  0  0
    1.6490   47.5160    7.7880 C   0  0  0  0  0
   -1.7920   51.4470   10.6090 N   0  0  0  0  0
   -2.8270   52.4860   10.5440 C   0  0  0  0  0
   -3.5980   52.4620    9.2210 C   0  0  0  0  0
   -3.0220   52.6930    8.1610 O   0  0  0  0  0
   -2.0180   53.7660   10.7170 C   0  0  0  0  0
   -0.9780   53.3460   11.6960 C   0  0  0  0  0
   -0.5370   52.0020   11.1570 C   0  0  0  0  0
   -4.8740   52.0790    9.3220 N   0  0  0  0  0
   -5.8440   51.9660    8.2230 C   0  0  0  0  0
   -5.3800   52.3980    6.8300 C   0  0  0  0  0
   -5.1260   51.5060    5.9850 O   0  0  0  0  0
   -7.1380   52.6910    8.6050 C   0  0  0  0  0
   -7.5220   52.4620   10.0550 C   0  0  0  0  0
   -7.0830   53.2600   10.9140 O   0  5  0  0  0
   -8.2250   51.4690   10.3450 O   0  0  0  0  0
   -5.2563   53.6178    6.5393 O   0  5  0  0  0
   10.6813   42.4687   11.8136 H   0  0  0  0  0
    9.3818   41.5994   14.1385 H   0  0  0  0  0
    9.5366   44.6326   13.7141 H   0  0  0  0  0
   10.2303   43.7377   15.1085 H   0  0  0  0  0
    8.4515   43.7766   14.8615 H   0  0  0  0  0
    7.0584   41.9216   13.7311 H   0  0  0  0  0
    6.5200   42.5872   10.8639 H   0  0  0  0  0
    4.7098   40.9166   10.8580 H   0  0  0  0  0
    4.1914   41.0866   13.2936 H   0  0  0  0  0
    5.6844   40.1503   13.6412 H   0  0  0  0  0
    6.9602   40.1588   10.1702 H   0  0  0  0  0
    6.0702   38.8353   10.9965 H   0  0  0  0  0
    7.3519   39.7391   11.8722 H   0  0  0  0  0
    3.2881   39.1877   12.0318 H   0  0  0  0  0
    3.7026   38.7213   13.7162 H   0  0  0  0  0
    4.7850   38.2513   12.3620 H   0  0  0  0  0
    4.7294   43.8729   10.5005 H   0  0  0  0  0
    3.7420   45.3507   12.8474 H   0  0  0  0  0
    3.1806   45.6744    9.8588 H   0  0  0  0  0
    4.4149   46.5717   10.8063 H   0  0  0  0  0
    2.6689   46.8042   11.1582 H   0  0  0  0  0
    2.2254   44.2190   13.9689 H   0  0  0  0  0
    0.3562   42.5006   12.5577 H   0  0  0  0  0
    1.2149   41.8980   14.7712 H   0  0  0  0  0
   -0.5791   41.9361   14.6885 H   0  0  0  0  0
   -1.8466   43.4544   16.0494 H   0  0  0  0  0
    2.4255   43.5588   16.1280 H   0  0  0  0  0
   -1.9195   44.6814   18.1968 H   0  0  0  0  0
    2.3596   44.7905   18.2759 H   0  0  0  0  0
    1.0474   45.6267   19.8807 H   0  0  0  0  0
    0.4536   45.7910   13.2973 H   0  0  0  0  0
   -2.2413   46.1282   12.1781 H   0  0  0  0  0
   -1.4305   47.2778   14.8880 H   0  0  0  0  0
   -2.7588   46.1151   14.5560 H   0  0  0  0  0
   -4.7680   46.8820   13.2764 H   0  0  0  0  0
   -1.7495   49.6260   14.5737 H   0  0  0  0  0
   -6.2939   48.7793   12.8122 H   0  0  0  0  0
   -3.2628   51.5292   14.1180 H   0  0  0  0  0
   -5.5380   51.1113   13.2287 H   0  0  0  0  0
   -2.0381   47.5512   10.6450 H   0  0  0  0  0
    0.0290   49.7103   10.8712 H   0  0  0  0  0
   -0.9997   48.1577    8.4297 H   0  0  0  0  0
    0.8472   47.1529    9.7307 H   0  0  0  0  0
    1.7861   48.6760    9.5726 H   0  0  0  0  0
   -0.9824   50.5615    7.9004 H   0  0  0  0  0
    0.3551   49.7103    7.0558 H   0  0  0  0  0
    0.6993   50.6961    8.5174 H   0  0  0  0  0
    0.9370   46.8384    7.2942 H   0  0  0  0  0
    2.5826   46.9748    8.0012 H   0  0  0  0  0
    1.8624   48.3688    7.1268 H   0  0  0  0  0
   -3.5440   52.3678   11.3697 H   0  0  0  0  0
   -2.6392   54.5801   11.1187 H   0  0  0  0  0
   -1.5661   54.0847    9.7661 H   0  0  0  0  0
   -1.4010   53.2485   12.7067 H   0  0  0  0  0
   -0.1409   54.0594   11.7161 H   0  0  0  0  0
   -0.1377   51.3640   11.9592 H   0  0  0  0  0
    0.2223   52.1196   10.3698 H   0  0  0  0  0
   -5.2023   51.8457   10.2373 H   0  0  0  0  0
   -6.0818   50.8953    8.1396 H   0  0  0  0  0
   -7.9516   52.3244    7.9619 H   0  0  0  0  0
   -6.9998   53.7701    8.4422 H   0  0  0  0  0
   11.2861   41.5546   13.0416 H   0  0  0  0  0
   11.4005   43.1955   13.1035 H   0  0  0  0  0
  3  2  1  0  0  0
  2  5  1  0  0  0
  2  1  1  0  0  0
  3  4  2  0  0  0
  8  7  1  0  0  0
  7 10  1  0  0  0
  7  6  1  0  0  0
 10 11  1  0  0  0
 10 12  1  0  0  0
 11 13  1  0  0  0
  8  9  2  0  0  0
 16 15  1  0  0  0
 15 18  1  0  0  0
 15 14  1  0  0  0
 16 17  2  0  0  0
 21 20  1  0  0  0
 20 23  1  0  0  0
 20 19  1  0  0  0
 23 24  1  0  0  0
 24 26  4  0  0  0
 24 25  4  0  0  0
 25 27  4  0  0  0
 27 29  4  0  0  0
 29 30  1  0  0  0
 28 29  4  0  0  0
 26 28  4  0  0  0
 21 22  2  0  0  0
 33 32  1  0  0  0
 32 35  1  0  0  0
 32 31  1  0  0  0
 35 36  1  0  0  0
 36 38  4  0  0  0
 36 37  4  0  0  0
 37 39  4  0  0  0
 39 41  4  0  0  0
 40 41  4  0  0  0
 38 40  4  0  0  0
 33 34  2  0  0  0
 44 43  1  0  0  0
 43 46  1  0  0  0
 43 42  1  0  0  0
 46 47  1  0  0  0
 46 48  1  0  0  0
 47 49  1  0  0  0
 44 45  2  0  0  0
 51 50  1  0  0  0
 51 54  1  0  0  0
 52 51  1  0  0  0
 52 53  2  0  0  0
 54 55  1  0  0  0
 55 56  1  0  0  0
 50 56  1  0  0  0
 58 59  1  0  0  0
 58 61  1  0  0  0
 57 58  1  0  0  0
 61 62  1  0  0  0
 62 63  1  0  0  0
 62 64  2  0  0  0
 59 60  2  0  0  0
  6  3  1  0  0  0
 14  8  1  0  0  0
 19 16  1  0  0  0
 31 21  1  0  0  0
 42 33  1  0  0  0
 50 44  1  0  0  0
 52 57  1  0  0  0
 59 65  1  0  0  0
  1 66  1  0  0  0
  2 67  1  0  0  0
  5 68  1  0  0  0
  5 69  1  0  0  0
  5 70  1  0  0  0
  6 71  1  0  0  0
  7 72  1  0  0  0
 10 73  1  0  0  0
 11 74  1  0  0  0
 11 75  1  0  0  0
 12 76  1  0  0  0
 12 77  1  0  0  0
 12 78  1  0  0  0
 13 79  1  0  0  0
 13 80  1  0  0  0
 13 81  1  0  0  0
 14 82  1  0  0  0
 15 83  1  0  0  0
 18 84  1  0  0  0
 18 85  1  0  0  0
 18 86  1  0  0  0
 19 87  1  0  0  0
 20 88  1  0  0  0
 23 89  1  0  0  0
 23 90  1  0  0  0
 25 91  1  0  0  0
 26 92  1  0  0  0
 27 93  1  0  0  0
 28 94  1  0  0  0
 30 95  1  0  0  0
 31 96  1  0  0  0
 32 97  1  0  0  0
 35 98  1  0  0  0
 35 99  1  0  0  0
 37100  1  0  0  0
 38101  1  0  0  0
 39102  1  0  0  0
 40103  1  0  0  0
 41104  1  0  0  0
 42105  1  0  0  0
 43106  1  0  0  0
 46107  1  0  0  0
 47108  1  0  0  0
 47109  1  0  0  0
 48110  1  0  0  0
 48111  1  0  0  0
 48112  1  0  0  0
 49113  1  0  0  0
 49114  1  0  0  0
 49115  1  0  0  0
 51116  1  0  0  0
 54117  1  0  0  0
 54118  1  0  0  0
 55119  1  0  0  0
 55120  1  0  0  0
 56121  1  0  0  0
 56122  1  0  0  0
 57123  1  0  0  0
 58124  1  0  0  0
 61125  1  0  0  0
 61126  1  0  0  0
  1127  1  0  0  0
  1128  1  0  0  0
M  END
$$$$
