1f0u_ligand
  -I-interpret- 

 66 68  0  0  0  0  0  0  0  0999 V2000
   11.6181  -14.9753   22.8685 H   0  0  0  0  0
   14.3994  -12.5351   24.9619 H   0  0  0  0  0
   15.6565  -14.5259   25.6585 H   0  0  0  0  0
   14.8974  -16.7763   24.9663 H   0  0  0  0  0
    9.0013  -11.2220   22.9567 H   0  0  0  0  0
   12.5050  -14.8710   23.4830 C   0  0  0  0  0
   12.9090  -13.6110   23.8810 C   0  0  0  0  0
   14.0530  -13.5150   24.6540 C   0  0  0  0  0
   14.7690  -14.6360   25.0460 C   0  0  0  0  0
   14.3500  -15.8940   24.6550 C   0  0  0  0  0
   13.2170  -16.0130   23.8570 C   0  0  0  0  0
   10.0850  -11.2180   22.9830 C   0  0  0  0  0
   10.7820  -10.0770   22.5860 C   0  0  0  0  0
   12.1730  -10.1120   22.6430 C   0  0  0  0  0
   12.8400  -11.2490   23.0750 C   0  0  0  0  0
   12.1550  -12.3870   23.4590 C   0  0  0  0  0
   10.7710  -12.3550   23.4140 C   0  0  0  0  0
   10.0600   -8.8680   22.1450 C   0  0  0  0  0
   10.7800   -8.0000   21.3880 N   0  0  0  0  0
   10.2840   -6.6780   21.0060 C   0  0  0  0  0
   10.7870   -6.3510   19.5940 C   0  0  0  0  0
   10.7310   -5.6350   22.0590 C   0  0  0  0  0
   10.0810   -4.2890   21.6970 C   0  0  0  0  0
    8.6550   -4.3630   21.6680 O   0  0  0  0  0
   12.2730   -5.5160   22.1310 C   0  0  0  0  0
   12.7840  -17.3630   23.3610 C   0  0  0  0  0
   13.2850  -17.6150   22.0060 N   0  3  0  0  0
   12.2570   -4.5180   24.4810 C   0  0  0  0  0
   12.8600   -3.7520   25.4860 C   0  0  0  0  0
   14.0610   -3.0960   25.2170 C   0  0  0  0  0
   14.6290   -3.1830   23.9560 C   0  0  0  0  0
   14.0180   -3.9360   22.9640 C   0  0  0  0  0
   12.8390   -4.6300   23.2170 C   0  0  0  0  0
   12.2420   -3.6320   26.8170 C   0  3  0  0  0
   12.9490   -3.2590   27.8790 N   0  0  0  0  0
   10.9350   -3.9120   26.9630 N   0  0  0  0  0
   10.6790   -3.2860   21.4430 O   0  0  0  0  0
    8.8920   -8.6520   22.4350 O   0  0  0  0  0
    7.9040   -3.2530   21.1650 C   0  0  0  0  0
   12.7423   -9.2388   22.3457 H   0  0  0  0  0
   13.9234  -11.2452   23.1124 H   0  0  0  0  0
   10.2093  -13.2303   23.7195 H   0  0  0  0  0
   11.6895   -8.2770   21.0781 H   0  0  0  0  0
    9.1844   -6.6986   20.9866 H   0  0  0  0  0
   10.4202   -5.3580   19.2949 H   0  0  0  0  0
   10.4144   -7.1075   18.8877 H   0  0  0  0  0
   11.8870   -6.3529   19.5870 H   0  0  0  0  0
   10.3664   -5.9513   23.0474 H   0  0  0  0  0
   12.6217   -5.1220   21.1650 H   0  0  0  0  0
   12.6780   -6.5275   22.2823 H   0  0  0  0  0
   11.6849  -17.4062   23.3511 H   0  0  0  0  0
   13.1753  -18.1366   24.0380 H   0  0  0  0  0
   12.9803  -18.5255   21.6990 H   0  0  0  0  0
   14.2924  -17.5811   22.0085 H   0  0  0  0  0
   12.9267  -16.9118   21.3790 H   0  0  0  0  0
   11.3249   -5.0314   24.6873 H   0  0  0  0  0
   14.5496   -2.5187   25.9935 H   0  0  0  0  0
   15.5547   -2.6604   23.7438 H   0  0  0  0  0
   14.4654   -3.9844   21.9778 H   0  0  0  0  0
   12.4937   -3.1824   28.7997 H   0  0  0  0  0
   13.9521   -3.0466   27.7812 H   0  0  0  0  0
   10.3763   -4.2021   26.1478 H   0  0  0  0  0
   10.4925   -3.8364   27.8900 H   0  0  0  0  0
    6.8297   -3.4834   21.2173 H   0  0  0  0  0
    8.1876   -3.0620   20.1195 H   0  0  0  0  0
    8.1176   -2.3607   21.7717 H   0  0  0  0  0
  6  1  1  0  0  0
  8  2  1  0  0  0
  9  3  1  0  0  0
 10  4  1  0  0  0
  6 11  4  0  0  0
  7  6  4  0  0  0
  7 16  4  0  0  0
  8  7  4  0  0  0
  9  8  4  0  0  0
  9 10  4  0  0  0
 10 11  4  0  0  0
 11 26  1  0  0  0
 26 27  1  0  0  0
 16 17  4  0  0  0
 16 15  4  0  0  0
 15 14  4  0  0  0
 14 13  4  0  0  0
 13 18  1  0  0  0
 13 12  4  0  0  0
 12 17  4  0  0  0
 18 38  2  0  0  0
 18 19  1  0  0  0
 19 20  1  0  0  0
 20 22  1  0  0  0
 20 21  1  0  0  0
 22 25  1  0  0  0
 22 23  1  0  0  0
 23 37  2  0  0  0
 23 24  1  0  0  0
 24 39  1  0  0  0
 25 33  1  0  0  0
 33 32  4  0  0  0
 33 28  4  0  0  0
 28 29  4  0  0  0
 29 34  1  0  0  0
 29 30  4  0  0  0
 30 31  4  0  0  0
 31 32  4  0  0  0
 34 36  1  0  0  0
 34 35  1  0  0  0
 12  5  1  0  0  0
 14 40  1  0  0  0
 15 41  1  0  0  0
 17 42  1  0  0  0
 19 43  1  0  0  0
 20 44  1  0  0  0
 21 45  1  0  0  0
 21 46  1  0  0  0
 21 47  1  0  0  0
 22 48  1  0  0  0
 25 49  1  0  0  0
 25 50  1  0  0  0
 26 51  1  0  0  0
 26 52  1  0  0  0
 27 53  1  0  0  0
 27 54  1  0  0  0
 27 55  1  0  0  0
 28 56  1  0  0  0
 30 57  1  0  0  0
 31 58  1  0  0  0
 32 59  1  0  0  0
 35 60  1  0  0  0
 35 61  1  0  0  0
 36 62  1  0  0  0
 36 63  1  0  0  0
 39 64  1  0  0  0
 39 65  1  0  0  0
 39 66  1  0  0  0
M  END
$$$$
