### 
### Created by X-TOOL on Mon Oct 24 23:07:11 2005
### 

@<TRIPOS>MOLECULE
1f0u_ligand
   66    68     1     0     0
SMALL
GAST_HUCK


@<TRIPOS>ATOM
      1 H61        11.6181  -14.9753   22.8685 H         1 SUB1        0.057
      2 H81        14.3994  -12.5351   24.9619 H         1 SUB1        0.057
      3 H91        15.6565  -14.5259   25.6585 H         1 SUB1        0.060
      4 H101       14.8974  -16.7763   24.9663 H         1 SUB1        0.057
      5 H121        9.0013  -11.2220   22.9567 H         1 SUB1        0.067
      6 C1         12.5050  -14.8710   23.4830 C.ar      1 SUB1       -0.047
      7 C2         12.9090  -13.6110   23.8810 C.ar      1 SUB1       -0.022
      8 C3         14.0530  -13.5150   24.6540 C.ar      1 SUB1       -0.060
      9 C4         14.7690  -14.6360   25.0460 C.ar      1 SUB1       -0.067
     10 C5         14.3500  -15.8940   24.6550 C.ar      1 SUB1       -0.054
     11 C6         13.2170  -16.0130   23.8570 C.ar      1 SUB1        0.002
     12 C7         10.0850  -11.2180   22.9830 C.ar      1 SUB1       -0.042
     13 C8         10.7820  -10.0770   22.5860 C.ar      1 SUB1        0.049
     14 C9         12.1730  -10.1120   22.6430 C.ar      1 SUB1       -0.042
     15 C10        12.8400  -11.2490   23.0750 C.ar      1 SUB1       -0.049
     16 C11        12.1550  -12.3870   23.4590 C.ar      1 SUB1       -0.016
     17 C12        10.7710  -12.3550   23.4140 C.ar      1 SUB1       -0.049
     18 C13        10.0600   -8.8680   22.1450 C.2       1 SUB1        0.205
     19 N14        10.7800   -8.0000   21.3880 N.am      1 SUB1       -0.281
     20 C15        10.2840   -6.6780   21.0060 C.3       1 SUB1        0.061
     21 C16        10.7870   -6.3510   19.5940 C.3       1 SUB1       -0.039
     22 C17        10.7310   -5.6350   22.0590 C.3       1 SUB1        0.092
     23 C18        10.0810   -4.2890   21.6970 C.2       1 SUB1        0.241
     24 O19         8.6550   -4.3630   21.6680 O.3       1 SUB1       -0.280
     25 C20        12.2730   -5.5160   22.1310 C.3       1 SUB1        0.004
     26 C21        12.7840  -17.3630   23.3610 C.3       1 SUB1       -0.002
     27 N22        13.2850  -17.6150   22.0060 N.4       1 SUB1        0.231
     28 C23        12.2570   -4.5180   24.4810 C.ar      1 SUB1       -0.005
     29 C24        12.8600   -3.7520   25.4860 C.ar      1 SUB1        0.179
     30 C25        14.0610   -3.0960   25.2170 C.ar      1 SUB1       -0.014
     31 C26        14.6290   -3.1830   23.9560 C.ar      1 SUB1       -0.064
     32 C27        14.0180   -3.9360   22.9640 C.ar      1 SUB1       -0.060
     33 C28        12.8390   -4.6300   23.2170 C.ar      1 SUB1       -0.036
     34 C29        12.2420   -3.6320   26.8170 C.cat     1 SUB1        0.315
     35 N30        12.9490   -3.2590   27.8790 N.pl3     1 SUB1       -0.200
     36 N31        10.9350   -3.9120   26.9630 N.pl3     1 SUB1       -0.200
     37 O32        10.6790   -3.2860   21.4430 O.2       1 SUB1       -0.370
     38 O33         8.8920   -8.6520   22.4350 O.2       1 SUB1       -0.385
     39 C34         7.9040   -3.2530   21.1650 C.3       1 SUB1        0.066
     40 H141       12.7423   -9.2388   22.3457 H         1 SUB1        0.067
     41 H151       13.9234  -11.2452   23.1124 H         1 SUB1        0.063
     42 H171       10.2093  -13.2303   23.7195 H         1 SUB1        0.063
     43 H191       11.6895   -8.2770   21.0781 H         1 SUB1        0.185
     44 H201        9.1844   -6.6986   20.9866 H         1 SUB1        0.058
     45 H211       10.4202   -5.3580   19.2949 H         1 SUB1        0.025
     46 H212       10.4144   -7.1075   18.8877 H         1 SUB1        0.025
     47 H213       11.8870   -6.3529   19.5870 H         1 SUB1        0.025
     48 H221       10.3664   -5.9513   23.0474 H         1 SUB1        0.060
     49 H251       12.6217   -5.1220   21.1650 H         1 SUB1        0.045
     50 H252       12.6780   -6.5275   22.2823 H         1 SUB1        0.045
     51 H261       11.6849  -17.4062   23.3511 H         1 SUB1        0.098
     52 H262       13.1753  -18.1366   24.0380 H         1 SUB1        0.098
     53 H271       12.9803  -18.5255   21.6990 H         1 SUB1        0.201
     54 H272       14.2924  -17.5811   22.0085 H         1 SUB1        0.201
     55 H273       12.9267  -16.9118   21.3790 H         1 SUB1        0.201
     56 H281       11.3249   -5.0314   24.6873 H         1 SUB1        0.060
     57 H301       14.5496   -2.5187   25.9935 H         1 SUB1        0.061
     58 H311       15.5547   -2.6604   23.7438 H         1 SUB1        0.060
     59 H321       14.4654   -3.9844   21.9778 H         1 SUB1        0.056
     60 H351       12.4937   -3.1824   28.7997 H         1 SUB1        0.192
     61 H352       13.9521   -3.0466   27.7812 H         1 SUB1        0.192
     62 H361       10.3763   -4.2021   26.1478 H         1 SUB1        0.192
     63 H362       10.4925   -3.8364   27.8900 H         1 SUB1        0.192
     64 H391        6.8297   -3.4834   21.2173 H         1 SUB1        0.058
     65 H392        8.1876   -3.0620   20.1195 H         1 SUB1        0.058
     66 H393        8.1176   -2.3607   21.7717 H         1 SUB1        0.058
@<TRIPOS>BOND
     1    6    1 1  
     2    8    2 1  
     3    9    3 1  
     4   10    4 1  
     5    6   11 ar 
     6    7    6 ar 
     7    7   16 ar 
     8    8    7 ar 
     9    9    8 ar 
    10    9   10 ar 
    11   10   11 ar 
    12   11   26 1  
    13   26   27 1  
    14   16   17 ar 
    15   16   15 ar 
    16   15   14 ar 
    17   14   13 ar 
    18   13   18 1  
    19   13   12 ar 
    20   12   17 ar 
    21   18   38 2  
    22   18   19 am 
    23   19   20 1  
    24   20   22 1  
    25   20   21 1  
    26   22   25 1  
    27   22   23 1  
    28   23   37 2  
    29   23   24 1  
    30   24   39 1  
    31   25   33 1  
    32   33   32 ar 
    33   33   28 ar 
    34   28   29 ar 
    35   29   34 1  
    36   29   30 ar 
    37   30   31 ar 
    38   31   32 ar 
    39   34   36 1  
    40   34   35 1  
    41   12    5 1  
    42   14   40 1  
    43   15   41 1  
    44   17   42 1  
    45   19   43 1  
    46   20   44 1  
    47   21   45 1  
    48   21   46 1  
    49   21   47 1  
    50   22   48 1  
    51   25   49 1  
    52   25   50 1  
    53   26   51 1  
    54   26   52 1  
    55   27   53 1  
    56   27   54 1  
    57   27   55 1  
    58   28   56 1  
    59   30   57 1  
    60   31   58 1  
    61   32   59 1  
    62   35   60 1  
    63   35   61 1  
    64   36   62 1  
    65   36   63 1  
    66   39   64 1  
    67   39   65 1  
    68   39   66 1  
@<TRIPOS>SUBSTRUCTURE
     1 SUB1        1 GROUP

