2fqy_ligand
  -I-interpret- 

 32 34  0  0  0  0  0  0  0  0999 V2000
   31.3630   62.3670   13.1940 O   0  0  0  0  0
   31.0520   61.0970   13.7430 C   0  0  0  0  0
   31.9130   60.0250   13.0660 C   0  0  0  0  0
   31.7390   60.0320   11.6080 O   0  0  0  0  0
   33.4420   60.2370   13.3240 C   0  0  0  0  0
   33.8650   59.7290   14.6100 O   0  0  0  0  0
   34.0280   59.4720   12.1150 C   0  0  0  0  0
   34.0090   58.0480   12.3610 O   0  0  0  0  0
   33.0530   59.8380   10.9880 C   0  0  0  0  0
   33.4930   61.0720   10.2890 N   0  0  0  0  0
   33.1090   62.3770   10.5520 C   0  0  0  0  0
   33.6560   63.2010    9.7010 N   0  0  0  0  0
   34.4050   62.4900    8.8310 C   0  0  0  0  0
   35.1950   62.8230    7.7190 C   0  0  0  0  0
   35.3940   64.1540    7.3880 N   0  0  0  0  0
   35.7570   61.8260    7.0110 N   0  0  0  0  0
   35.6690   60.5280    7.4000 C   0  0  0  0  0
   34.9810   60.1740    8.4660 N   0  0  0  0  0
   34.3200   61.1130    9.1930 C   0  0  0  0  0
   31.1835   62.3594   12.2509 H   0  0  0  0  0
   29.9978   60.8764   13.5755 H   0  0  0  0  0
   31.2548   61.1039   14.8139 H   0  0  0  0  0
   31.5799   59.0822   13.4998 H   0  0  0  0  0
   33.7653   61.2762   13.3848 H   0  0  0  0  0
   33.6859   58.7870   14.6553 H   0  0  0  0  0
   35.0649   59.7263   11.8953 H   0  0  0  0  0
   34.5348   57.8519   13.1399 H   0  0  0  0  0
   33.0145   59.0472   10.2388 H   0  0  0  0  0
   32.4408   62.6748   11.3600 H   0  0  0  0  0
   34.9670   64.8891    7.9517 H   0  0  0  0  0
   35.9675   64.3985    6.5807 H   0  0  0  0  0
   36.1794   59.7615    6.8168 H   0  0  0  0  0
  1  2  1  0  0  0
  2  3  1  0  0  0
  3  4  1  0  0  0
  3  5  1  0  0  0
  4  9  1  0  0  0
  5  6  1  0  0  0
  5  7  1  0  0  0
  7  8  1  0  0  0
  7  9  1  0  0  0
  9 10  1  0  0  0
 10 11  1  0  0  0
 10 19  1  0  0  0
 11 12  2  0  0  0
 12 13  1  0  0  0
 13 14  4  0  0  0
 13 19  4  0  0  0
 14 15  1  0  0  0
 14 16  4  0  0  0
 16 17  4  0  0  0
 17 18  4  0  0  0
 18 19  4  0  0  0
  1 20  1  0  0  0
  2 21  1  0  0  0
  2 22  1  0  0  0
  3 23  1  0  0  0
  5 24  1  0  0  0
  6 25  1  0  0  0
  7 26  1  0  0  0
  8 27  1  0  0  0
  9 28  1  0  0  0
 11 29  1  0  0  0
 15 30  1  0  0  0
 15 31  1  0  0  0
 17 32  1  0  0  0
M  END
$$$$
