### 
### Created by X-TOOL on Sun Jun  3 11:23:52 2007
### 

@<TRIPOS>MOLECULE
2fqy_ligand
   32    34     1     0     0
SMALL
GAST_HUCK


@<TRIPOS>ATOM
      1 O5         31.3630   62.3670   13.1940 O.3       1 SUB1       -0.392
      2 C5         31.0520   61.0970   13.7430 C.3       1 SUB1        0.073
      3 C4         31.9130   60.0250   13.0660 C.3       1 SUB1        0.113
      4 O4         31.7390   60.0320   11.6080 O.3       1 SUB1       -0.337
      5 C3         33.4420   60.2370   13.3240 C.3       1 SUB1        0.115
      6 O3         33.8650   59.7290   14.6100 O.3       1 SUB1       -0.386
      7 C2         34.0280   59.4720   12.1150 C.3       1 SUB1        0.139
      8 O2         34.0090   58.0480   12.3610 O.3       1 SUB1       -0.384
      9 C1         33.0530   59.8380   10.9880 C.3       1 SUB1        0.201
     10 N9         33.4930   61.0720   10.2890 N.pl3     1 SUB1       -0.192
     11 C8         33.1090   62.3770   10.5520 C.2       1 SUB1        0.112
     12 N7         33.6560   63.2010    9.7010 N.2       1 SUB1       -0.296
     13 C5         34.4050   62.4900    8.8310 C.ar      1 SUB1        0.105
     14 C6         35.1950   62.8230    7.7190 C.ar      1 SUB1        0.130
     15 N6         35.3940   64.1540    7.3880 N.pl3     1 SUB1       -0.315
     16 N1         35.7570   61.8260    7.0110 N.ar      1 SUB1       -0.270
     17 C2         35.6690   60.5280    7.4000 C.ar      1 SUB1        0.053
     18 N3         34.9810   60.1740    8.4660 N.ar      1 SUB1       -0.271
     19 C4         34.3200   61.1130    9.1930 C.ar      1 SUB1        0.161
     20 H          31.1835   62.3594   12.2509 H         1 SUB1        0.209
     21 H          29.9978   60.8764   13.5755 H         1 SUB1        0.058
     22 H          31.2548   61.1039   14.8139 H         1 SUB1        0.058
     23 H          31.5799   59.0822   13.4998 H         1 SUB1        0.065
     24 H          33.7653   61.2762   13.3848 H         1 SUB1        0.065
     25 H          33.6859   58.7870   14.6553 H         1 SUB1        0.210
     26 H          35.0649   59.7263   11.8953 H         1 SUB1        0.068
     27 H          34.5348   57.8519   13.1399 H         1 SUB1        0.210
     28 H          33.0145   59.0472   10.2388 H         1 SUB1        0.100
     29 H          32.4408   62.6748   11.3600 H         1 SUB1        0.135
     30 H          34.9670   64.8891    7.9517 H         1 SUB1        0.182
     31 H          35.9675   64.3985    6.5807 H         1 SUB1        0.182
     32 H          36.1794   59.7615    6.8168 H         1 SUB1        0.100
@<TRIPOS>BOND
     1    1    2 1  
     2    2    3 1  
     3    3    4 1  
     4    3    5 1  
     5    4    9 1  
     6    5    6 1  
     7    5    7 1  
     8    7    8 1  
     9    7    9 1  
    10    9   10 1  
    11   10   11 1  
    12   10   19 1  
    13   11   12 2  
    14   12   13 1  
    15   13   14 ar 
    16   13   19 ar 
    17   14   15 1  
    18   14   16 ar 
    19   16   17 ar 
    20   17   18 ar 
    21   18   19 ar 
    22    1   20 1  
    23    2   21 1  
    24    2   22 1  
    25    3   23 1  
    26    5   24 1  
    27    6   25 1  
    28    7   26 1  
    29    8   27 1  
    30    9   28 1  
    31   11   29 1  
    32   15   30 1  
    33   15   31 1  
    34   17   32 1  
@<TRIPOS>SUBSTRUCTURE
     1 SUB1        1 GROUP

