### 
### Created by X-TOOL on Mon Oct 24 23:18:34 2005
### 

@<TRIPOS>MOLECULE
1i9l_ligand
   34    35     1     0     0
SMALL
GAST_HUCK


@<TRIPOS>ATOM
      1 C01        -3.7880    2.9570   14.9130 C.ar      1 SUB1       -0.040
      2 C02        -4.2250    1.8450   15.6210 C.ar      1 SUB1       -0.030
      3 C03        -5.6130    1.7560   16.0180 C.ar      1 SUB1        0.112
      4 C04        -6.4770    2.8040   15.6800 C.ar      1 SUB1       -0.030
      5 C05        -5.9990    3.9120   14.9680 C.ar      1 SUB1       -0.040
      6 C06        -4.6600    4.0010   14.5770 C.ar      1 SUB1        0.050
      7 C07        -4.1000    5.1980   13.7860 C.2       1 SUB1        0.207
      8 O08        -4.9140    6.1180   13.5010 O.2       1 SUB1       -0.384
      9 N09        -2.7120    5.2960   13.3690 N.am      1 SUB1       -0.275
     10 C10        -2.2780    6.5590   12.8220 C.3       1 SUB1        0.062
     11 S11        -6.0830    0.2740   16.9310 S.o2      1 SUB1        0.068
     12 NP2        -5.6210   -1.1680   16.1600 N.am      1 SUB1       -0.261
     13 O13        -7.5130    0.4880   17.1220 O.2       1 SUB1       -0.150
     14 O14        -5.3780    0.5550   18.2120 O.2       1 SUB1       -0.150
     15 C15        -1.5640    7.4610   13.6090 C.ar      1 SUB1       -0.025
     16 C16        -2.0640    7.7550   14.9390 C.ar      1 SUB1       -0.060
     17 C17        -1.3290    8.7030   15.7590 C.ar      1 SUB1       -0.035
     18 C18        -0.1090    9.3430   15.2530 C.ar      1 SUB1        0.125
     19 C19         0.3780    9.0300   13.9210 C.ar      1 SUB1       -0.035
     20 C20        -0.3360    8.0950   13.0890 C.ar      1 SUB1       -0.060
     21 F21         0.5740   10.2350   16.0390 F         1 SUB1       -0.189
     22 H11        -2.7481    3.0187   14.6134 H         1 SUB1        0.067
     23 H21        -3.5320    1.0508   15.8739 H         1 SUB1        0.065
     24 H41        -7.5204    2.7582   15.9703 H         1 SUB1        0.065
     25 H51        -6.6809    4.7159   14.7154 H         1 SUB1        0.067
     26 H91        -2.0847    4.5222   13.4571 H         1 SUB1        0.187
     27 H101       -3.1833    7.0839   12.4831 H         1 SUB1        0.068
     28 H102       -1.6430    6.3257   11.9546 H         1 SUB1        0.068
     29 H121       -5.8328   -2.0501   16.5808 H         1 SUB1        0.163
     30 H122       -5.1373   -1.1346   15.2854 H         1 SUB1        0.163
     31 H161       -2.9638    7.2791   15.3117 H         1 SUB1        0.055
     32 H171       -1.6855    8.9400   16.7549 H         1 SUB1        0.059
     33 H191        1.2816    9.5013   13.5515 H         1 SUB1        0.059
     34 H201        0.0238    7.8600   12.0938 H         1 SUB1        0.055
@<TRIPOS>BOND
     1    1    2 ar 
     2    1    6 ar 
     3    2    3 ar 
     4    3    4 ar 
     5    3   11 1  
     6    4    5 ar 
     7    5    6 ar 
     8    6    7 1  
     9    7    8 2  
    10    7    9 am 
    11    9   10 1  
    12   10   15 1  
    13   11   12 1  
    14   11   13 2  
    15   11   14 2  
    16   15   16 ar 
    17   15   20 ar 
    18   16   17 ar 
    19   17   18 ar 
    20   18   19 ar 
    21   18   21 1  
    22   19   20 ar 
    23    1   22 1  
    24    2   23 1  
    25    4   24 1  
    26    5   25 1  
    27    9   26 1  
    28   10   27 1  
    29   10   28 1  
    30   12   29 1  
    31   12   30 1  
    32   16   31 1  
    33   17   32 1  
    34   19   33 1  
    35   20   34 1  
@<TRIPOS>SUBSTRUCTURE
     1 SUB1        1 GROUP

