1ws5_ligand
  -I-interpret- 

 27 27  0  0  0  0  0  0  0  0999 V2000
   51.3820   54.2590   66.5040 C   0  0  0  0  0
   51.9890   55.6140   66.0330 C   0  0  0  0  0
   51.8740   56.6800   67.1330 C   0  0  0  0  0
   50.3980   56.8450   67.5380 C   0  0  0  0  0
   49.8640   55.4890   68.0340 C   0  0  0  0  0
   48.3930   55.5780   68.4330 C   0  0  0  0  0
   52.5500   52.3250   67.9740 C   0  0  0  0  0
   52.2880   53.6050   67.3030 O   0  0  0  0  0
   51.3600   56.0890   64.8480 O   0  0  0  0  0
   52.4190   57.9070   66.6670 O   0  0  0  0  0
   50.2800   57.8230   68.5520 O   0  0  0  0  0
   49.9950   54.5000   66.9670 O   0  0  0  0  0
   47.5410   55.8960   67.3390 O   0  0  0  0  0
   51.2783   53.6202   65.6145 H   0  0  0  0  0
   53.0551   55.4513   65.8164 H   0  0  0  0  0
   52.4468   56.3511   68.0126 H   0  0  0  0  0
   49.8145   57.1655   66.6624 H   0  0  0  0  0
   50.4544   55.1702   68.9056 H   0  0  0  0  0
   48.2842   56.3581   69.2009 H   0  0  0  0  0
   48.0828   54.6081   68.8490 H   0  0  0  0  0
   53.5059   52.3836   68.5151 H   0  0  0  0  0
   52.6018   51.5218   67.2242 H   0  0  0  0  0
   51.7386   52.1110   68.6852 H   0  0  0  0  0
   51.7873   56.8880   64.5625 H   0  0  0  0  0
   51.9276   58.2032   65.9099 H   0  0  0  0  0
   50.6133   58.6525   68.2306 H   0  0  0  0  0
   47.6203   55.2245   66.6717 H   0  0  0  0  0
  1  2  1  0  0  0
  1  8  1  0  0  0
  1 12  1  0  0  0
  2  3  1  0  0  0
  2  9  1  0  0  0
  3  4  1  0  0  0
  3 10  1  0  0  0
  4  5  1  0  0  0
  4 11  1  0  0  0
  5  6  1  0  0  0
  5 12  1  0  0  0
  6 13  1  0  0  0
  8  7  1  0  0  0
  1 14  1  0  0  0
  2 15  1  0  0  0
  3 16  1  0  0  0
  4 17  1  0  0  0
  5 18  1  0  0  0
  6 19  1  0  0  0
  6 20  1  0  0  0
  7 21  1  0  0  0
  7 22  1  0  0  0
  7 23  1  0  0  0
  9 24  1  0  0  0
 10 25  1  0  0  0
 11 26  1  0  0  0
 13 27  1  0  0  0
M  END
$$$$
