1ody_ligand
  -I-interpret- 

116119  0  0  0  0  0  0  0  0999 V2000
  -12.2680   12.0100   36.8600 C   0  0  0  0  0
  -11.8930   12.1010   35.3620 C   0  0  0  0  0
  -14.0120   11.2390   32.4260 C   0  0  0  0  0
  -15.2040   11.0480   33.1320 C   0  0  0  0  0
  -15.7010    9.7630   33.3620 C   0  0  0  0  0
  -15.0420    8.6280   32.8680 C   0  0  0  0  0
  -13.3550   10.1170   31.9280 C   0  0  0  0  0
  -13.8450    8.8080   32.1530 C   0  0  0  0  0
  -12.1960   10.2580   31.1770 C   0  0  0  0  0
  -13.1800    7.6870   31.6490 C   0  0  0  0  0
  -11.5530    9.1200   30.6970 C   0  0  0  0  0
  -12.0120    7.8480   30.9320 C   0  0  0  0  0
  -10.1890   15.5120   31.7260 C   0  0  0  0  0
  -10.0690   15.4200   30.2400 C   0  0  0  0  0
   -8.3520   17.0970   32.1000 C   0  0  0  0  0
  -10.7240   16.2430   29.4300 N   0  0  0  0  0
  -10.5930   15.9960   27.9990 C   0  0  0  0  0
  -13.8330   13.9280   28.6550 C   0  0  0  0  0
  -12.0430   12.6320   27.6600 C   0  0  0  0  0
  -10.2510   17.2570   27.1470 C   0  0  0  0  0
   -8.7700   17.3840   26.7540 C   0  0  0  0  0
   -8.2670   16.5330   25.5880 C   0  0  0  0  0
  -10.8840   11.5100   34.9730 O   0  0  0  0  0
  -12.7330   12.8620   34.6340 N   0  0  0  0  0
  -12.4490   13.0650   33.2380 C   0  0  0  0  0
  -13.5400   12.6390   32.2510 C   0  0  0  0  0
  -11.9660   14.4570   32.9100 C   0  0  0  0  0
  -12.3550   15.5880   33.1120 O   0  0  0  0  0
  -10.8220   14.3290   32.2390 N   0  0  0  0  0
   -9.3540   14.5530   29.8000 O   0  0  0  0  0
   -8.8630   15.7340   32.4870 C   0  0  0  0  0
   -9.1530   15.6940   33.9620 C   0  0  0  0  0
  -11.9030   15.2320   27.6080 C   0  0  0  0  0
  -12.3630   13.9440   28.3320 C   0  0  0  0  0
  -10.6590   18.4650   27.7340 O   0  0  0  0  0
   -7.9150   15.3530   25.6560 O   0  0  0  0  0
   -8.1860   17.0860   24.3750 N   0  0  0  0  0
   -7.6920   16.4950   23.1670 C   0  0  0  0  0
   -8.7970   15.8350   22.2930 C   0  0  0  0  0
   -9.8170   15.0860   23.1170 C   0  0  0  0  0
   -6.8950   17.4910   22.3410 C   0  0  0  0  0
   -7.3000   18.6310   22.0000 O   0  0  0  0  0
   -5.7040   17.0100   21.9170 N   0  0  0  0  0
   -4.8100   17.8080   21.1030 C   0  0  0  0  0
   -3.8720   18.7200   21.9460 C   0  0  0  0  0
   -3.2710   17.8900   23.0970 C   0  0  0  0  0
   -2.1820   17.0640   22.8050 C   0  0  0  0  0
   -1.6580   16.2200   23.7910 C   0  0  0  0  0
   -2.1820   16.2120   25.0730 C   0  0  0  0  0
   -3.8380   17.8700   24.3910 C   0  0  0  0  0
   -3.2620   17.0340   25.4140 C   0  0  0  0  0
   -4.9160   18.6860   24.7440 C   0  0  0  0  0
   -3.8040   17.0550   26.7070 C   0  0  0  0  0
   -5.4270   18.6830   26.0500 C   0  0  0  0  0
   -4.8990   17.8690   27.0190 C   0  0  0  0  0
   -4.2980   16.9850   19.9730 C   0  0  0  0  0
   -4.0630   15.7620   20.0710 O   0  0  0  0  0
   -4.1180   17.5210   18.7800 N   0  0  0  0  0
  -11.5379   11.3746   37.3828 H   0  0  0  0  0
  -13.2726   11.5733   36.9607 H   0  0  0  0  0
  -12.2601   13.0173   37.3018 H   0  0  0  0  0
  -15.7488   11.9076   33.5053 H   0  0  0  0  0
  -16.6139    9.6407   33.9335 H   0  0  0  0  0
  -15.4458    7.6357   33.0335 H   0  0  0  0  0
  -11.7959   11.2433   30.9666 H   0  0  0  0  0
  -13.5803    6.6944   31.8207 H   0  0  0  0  0
  -10.6493    9.2443   30.1114 H   0  0  0  0  0
  -11.4677    6.9868   30.5616 H   0  0  0  0  0
  -10.8374   16.3736   31.9434 H   0  0  0  0  0
   -7.4046   17.2953   32.6226 H   0  0  0  0  0
   -9.0927   17.8599   32.3816 H   0  0  0  0  0
   -8.1854   17.1312   31.0132 H   0  0  0  0  0
  -11.2798   16.9952   29.7839 H   0  0  0  0  0
   -9.7505   15.3040   27.8531 H   0  0  0  0  0
  -14.0859   12.9873   29.1660 H   0  0  0  0  0
  -14.4138   14.0073   27.7242 H   0  0  0  0  0
  -14.0736   14.7776   29.3109 H   0  0  0  0  0
  -10.9732   12.6016   27.4057 H   0  0  0  0  0
  -12.6410   12.5348   26.7419 H   0  0  0  0  0
  -12.2813   11.8028   28.3423 H   0  0  0  0  0
  -10.8190   17.1475   26.2114 H   0  0  0  0  0
   -8.1719   17.1164   27.6375 H   0  0  0  0  0
   -8.5887   18.4373   26.4937 H   0  0  0  0  0
  -13.5387   13.2780   35.0557 H   0  0  0  0  0
  -11.5984   12.3989   33.0313 H   0  0  0  0  0
  -13.1414   12.7430   31.2311 H   0  0  0  0  0
  -14.4013   13.3112   32.3785 H   0  0  0  0  0
  -10.4126   13.4280   32.0955 H   0  0  0  0  0
   -8.1278   14.9594   32.2235 H   0  0  0  0  0
   -9.5254   14.6957   34.2355 H   0  0  0  0  0
   -9.9146   16.4491   34.2066 H   0  0  0  0  0
   -8.2312   15.9078   34.5229 H   0  0  0  0  0
  -11.7947   14.9635   26.5468 H   0  0  0  0  0
  -12.7238   15.9555   27.7213 H   0  0  0  0  0
  -11.8216   13.9428   29.2895 H   0  0  0  0  0
  -10.4211   19.1881   27.1657 H   0  0  0  0  0
   -8.5102   18.0291   24.3008 H   0  0  0  0  0
   -7.0019   15.6933   23.4686 H   0  0  0  0  0
   -8.3208   15.1301   21.5956 H   0  0  0  0  0
   -9.3131   16.6220   21.7235 H   0  0  0  0  0
  -10.5713   14.6414   22.4511 H   0  0  0  0  0
  -10.3075   15.7814   23.8140 H   0  0  0  0  0
   -9.3153   14.2895   23.6861 H   0  0  0  0  0
   -5.4342   16.0813   22.1715 H   0  0  0  0  0
   -5.4623   18.5386   20.6023 H   0  0  0  0  0
   -4.4483   19.5610   22.3591 H   0  0  0  0  0
   -3.0634   19.1074   21.3088 H   0  0  0  0  0
   -1.7428   17.0770   21.8140 H   0  0  0  0  0
   -0.8305   15.5634   23.5478 H   0  0  0  0  0
   -1.7494   15.5597   25.8230 H   0  0  0  0  0
   -5.3641   19.3312   23.9970 H   0  0  0  0  0
   -3.3676   16.4303   27.4779 H   0  0  0  0  0
   -6.2553   19.3367   26.2982 H   0  0  0  0  0
   -5.3250   17.8561   28.0157 H   0  0  0  0  0
   -3.7737   16.9605   18.0268 H   0  0  0  0  0
   -4.3260   18.4875   18.6295 H   0  0  0  0  0
  1  2  1  0  0  0
  2 24  1  0  0  0
  2 23  2  0  0  0
 24 25  1  0  0  0
 25 27  1  0  0  0
 25 26  1  0  0  0
 26  3  1  0  0  0
  3  7  4  0  0  0
  3  4  4  0  0  0
  4  5  4  0  0  0
  5  6  4  0  0  0
  6  8  4  0  0  0
  8 10  4  0  0  0
  8  7  4  0  0  0
  7  9  4  0  0  0
  9 11  4  0  0  0
 11 12  4  0  0  0
 12 10  4  0  0  0
 27 29  1  0  0  0
 27 28  2  0  0  0
 29 13  1  0  0  0
 13 31  1  0  0  0
 13 14  1  0  0  0
 14 30  2  0  0  0
 14 16  1  0  0  0
 16 17  1  0  0  0
 17 33  1  0  0  0
 17 20  1  0  0  0
 20 35  1  0  0  0
 20 21  1  0  0  0
 21 22  1  0  0  0
 22 37  1  0  0  0
 22 36  2  0  0  0
 37 38  1  0  0  0
 38 41  1  0  0  0
 38 39  1  0  0  0
 39 40  1  0  0  0
 41 43  1  0  0  0
 41 42  2  0  0  0
 43 44  1  0  0  0
 44 56  1  0  0  0
 44 45  1  0  0  0
 45 46  1  0  0  0
 46 50  4  0  0  0
 46 47  4  0  0  0
 47 48  4  0  0  0
 48 49  4  0  0  0
 49 51  4  0  0  0
 51 53  4  0  0  0
 51 50  4  0  0  0
 50 52  4  0  0  0
 52 54  4  0  0  0
 54 55  4  0  0  0
 55 53  4  0  0  0
 56 58  1  0  0  0
 56 57  2  0  0  0
 33 34  1  0  0  0
 34 18  1  0  0  0
 34 19  1  0  0  0
 31 15  1  0  0  0
 31 32  1  0  0  0
  1 59  1  0  0  0
  1 60  1  0  0  0
  1 61  1  0  0  0
  4 62  1  0  0  0
  5 63  1  0  0  0
  6 64  1  0  0  0
  9 65  1  0  0  0
 10 66  1  0  0  0
 11 67  1  0  0  0
 12 68  1  0  0  0
 13 69  1  0  0  0
 15 70  1  0  0  0
 15 71  1  0  0  0
 15 72  1  0  0  0
 16 73  1  0  0  0
 17 74  1  0  0  0
 18 75  1  0  0  0
 18 76  1  0  0  0
 18 77  1  0  0  0
 19 78  1  0  0  0
 19 79  1  0  0  0
 19 80  1  0  0  0
 20 81  1  0  0  0
 21 82  1  0  0  0
 21 83  1  0  0  0
 24 84  1  0  0  0
 25 85  1  0  0  0
 26 86  1  0  0  0
 26 87  1  0  0  0
 29 88  1  0  0  0
 31 89  1  0  0  0
 32 90  1  0  0  0
 32 91  1  0  0  0
 32 92  1  0  0  0
 33 93  1  0  0  0
 33 94  1  0  0  0
 34 95  1  0  0  0
 35 96  1  0  0  0
 37 97  1  0  0  0
 38 98  1  0  0  0
 39 99  1  0  0  0
 39100  1  0  0  0
 40101  1  0  0  0
 40102  1  0  0  0
 40103  1  0  0  0
 43104  1  0  0  0
 44105  1  0  0  0
 45106  1  0  0  0
 45107  1  0  0  0
 47108  1  0  0  0
 48109  1  0  0  0
 49110  1  0  0  0
 52111  1  0  0  0
 53112  1  0  0  0
 54113  1  0  0  0
 55114  1  0  0  0
 58115  1  0  0  0
 58116  1  0  0  0
M  END
$$$$
