### 
### Created by X-TOOL on Sun Jun  3 11:28:36 2007
### 

@<TRIPOS>MOLECULE
2h4k_ligand
   27    28     1     0     0
SMALL
GAST_HUCK


@<TRIPOS>ATOM
      1 C1         46.3160    8.7190    0.0150 C.ar      1 SUB1       -0.038
      2 C2         45.0090    9.2180   -0.0350 C.ar      1 SUB1       -0.036
      3 C3         44.7480   10.5400    0.3400 C.ar      1 SUB1       -0.021
      4 C4         45.8110   11.3700    0.7390 C.ar      1 SUB1        0.055
      5 C5         47.1210   10.8600    0.7890 C.ar      1 SUB1       -0.021
      6 C6         47.3750    9.5350    0.4210 C.ar      1 SUB1       -0.036
      7 C7         45.5390   12.7420    1.1450 C.2       1 SUB1        0.132
      8 C8         46.0050   13.4030    2.2410 C.2       1 SUB1        0.131
      9 C9         45.5610   14.7340    2.3980 C.2       1 SUB1        0.207
     10 C10        44.7080   15.0700    1.3730 C.2       1 SUB1        0.193
     11 S1         44.4990   13.7740    0.2710 S.3       1 SUB1        0.079
     12 C11        43.9960   16.4520    1.1670 C.2       1 SUB1        0.134
     13 O1         43.5570   16.6510   -0.0020 O.2       1 SUB1       -0.543
     14 O2         43.9340   17.2410    2.1580 O.2       1 SUB1       -0.543
     15 O3         45.9320   15.5320    3.4260 O.3       1 SUB1       -0.267
     16 C12        47.1380   16.2780    3.2020 C.3       1 SUB1        0.191
     17 C13        47.5240   17.0040    4.5010 C.2       1 SUB1        0.377
     18 O4         48.5950   17.6430    4.4450 O.2       1 SUB1       -0.259
     19 O5         46.7690   16.9050    5.4950 O.2       1 SUB1       -0.259
     20 BR1        47.1990   12.6480    3.4640 Br        1 SUB1       -0.026
     21 H          46.5094    7.6836   -0.2656 H         1 SUB1        0.082
     22 H          44.1935    8.5753   -0.3667 H         1 SUB1        0.069
     23 H          43.7281   10.9242    0.3231 H         1 SUB1        0.080
     24 H          47.9408   11.4997    1.1157 H         1 SUB1        0.080
     25 H          48.3912    9.1419    0.4507 H         1 SUB1        0.069
     26 H          46.9782   17.0062    2.4068 H         1 SUB1        0.086
     27 H          47.9398   15.6015    2.9061 H         1 SUB1        0.086
@<TRIPOS>BOND
     1    1    2 ar 
     2    1    6 ar 
     3    2    3 ar 
     4    3    4 ar 
     5    4    5 ar 
     6    4    7 1  
     7    5    6 ar 
     8    7    8 2  
     9    7   11 1  
    10    8    9 1  
    11    8   20 1  
    12    9   10 2  
    13    9   15 1  
    14   10   11 1  
    15   10   12 1  
    16   12   13 2  
    17   12   14 2  
    18   15   16 1  
    19   16   17 1  
    20   17   18 2  
    21   17   19 2  
    22    1   21 1  
    23    2   22 1  
    24    3   23 1  
    25    5   24 1  
    26    6   25 1  
    27   16   26 1  
    28   16   27 1  
@<TRIPOS>SUBSTRUCTURE
     1 SUB1        1 GROUP

