### 
### Created by X-TOOL on Mon Oct 24 21:52:35 2005
### 

@<TRIPOS>MOLECULE
1v0l_ligand
   36    37     1     0     0
SMALL
GAST_HUCK


@<TRIPOS>ATOM
      1 N1         10.7080   17.4190   14.5750 N.3       1 SUB1       -0.313
      2 C2         10.4450   17.2940   16.0170 C.3       1 SUB1        0.024
      3 C3          9.9420   15.8970   16.3650 C.3       1 SUB1        0.094
      4 O3          9.6280   15.8440   17.7490 O.3       1 SUB1       -0.388
      5 C4          8.7160   15.5760   15.5600 C.3       1 SUB1        0.090
      6 O4          8.2270   14.2770   15.9650 O.3       1 SUB1       -0.343
      7 C5          9.1070   15.6140   14.0800 C.3       1 SUB1       -0.011
      8 C6          9.5470   17.0150   13.7380 C.3       1 SUB1       -0.002
      9 C1B         6.8640   14.0980   15.6960 C.3       1 SUB1        0.188
     10 C2B         6.5170   12.6600   15.9770 C.3       1 SUB1        0.134
     11 C3B         5.0140   12.4380   15.8900 C.3       1 SUB1        0.114
     12 C4B         4.2410   13.5020   16.6610 C.3       1 SUB1        0.107
     13 C5B         4.7600   14.8800   16.3140 C.3       1 SUB1        0.079
     14 O2B         7.2040   11.8450   15.0400 O.3       1 SUB1       -0.384
     15 O3B         4.7110   11.1420   16.3810 O.3       1 SUB1       -0.386
     16 O4B         2.8570   13.3930   16.3600 O.3       1 SUB1       -0.387
     17 O5B         6.1400   14.9380   16.5670 O.3       1 SUB1       -0.346
     18 H11        11.5498   16.7913   14.3225 H         1 SUB1        0.122
     19 H21         9.6839   18.0327   16.3086 H         1 SUB1        0.045
     20 H22        11.3757   17.4886   16.5700 H         1 SUB1        0.045
     21 H31        10.7274   15.1606   16.1395 H         1 SUB1        0.063
     22 H41         9.3143   14.9745   17.9684 H         1 SUB1        0.210
     23 H51         7.9356   16.3281   15.7477 H         1 SUB1        0.062
     24 H71         8.2421   15.3349   13.4603 H         1 SUB1        0.030
     25 H72         9.9323   14.9105   13.8959 H         1 SUB1        0.030
     26 H81         9.8352   17.0543   12.6772 H         1 SUB1        0.043
     27 H82         8.7131   17.7095   13.9174 H         1 SUB1        0.043
     28 H91         6.6388   14.3473   14.6486 H         1 SUB1        0.094
     29 H101        6.8514   12.4009   16.9924 H         1 SUB1        0.067
     30 H111        4.7133   12.4941   14.8334 H         1 SUB1        0.065
     31 H121        4.3830   13.3344   17.7388 H         1 SUB1        0.064
     32 H131        4.2428   15.6319   16.9281 H         1 SUB1        0.059
     33 H132        4.5736   15.0847   15.2494 H         1 SUB1        0.059
     34 H141        8.1385   12.0001   15.1123 H         1 SUB1        0.210
     35 H151        5.2020   10.4951   15.8881 H         1 SUB1        0.210
     36 H161        2.5528   12.5217   16.5852 H         1 SUB1        0.210
@<TRIPOS>BOND
     1    1    2 1  
     2    1    8 1  
     3    2    3 1  
     4    3    4 1  
     5    3    5 1  
     6    5    6 1  
     7    5    7 1  
     8    6    9 1  
     9    7    8 1  
    10    9   10 1  
    11    9   17 1  
    12   10   11 1  
    13   10   14 1  
    14   11   12 1  
    15   11   15 1  
    16   12   13 1  
    17   12   16 1  
    18   13   17 1  
    19    1   18 1  
    20    2   19 1  
    21    2   20 1  
    22    3   21 1  
    23    4   22 1  
    24    5   23 1  
    25    7   24 1  
    26    7   25 1  
    27    8   26 1  
    28    8   27 1  
    29    9   28 1  
    30   10   29 1  
    31   11   30 1  
    32   12   31 1  
    33   13   32 1  
    34   13   33 1  
    35   14   34 1  
    36   15   35 1  
    37   16   36 1  
@<TRIPOS>SUBSTRUCTURE
     1 SUB1        1 GROUP

