1v0l_ligand
  -I-interpret- 

 36 37  0  0  0  0  0  0  0  0999 V2000
   10.7080   17.4190   14.5750 N   0  0  0  0  0
   10.4450   17.2940   16.0170 C   0  0  0  0  0
    9.9420   15.8970   16.3650 C   0  0  0  0  0
    9.6280   15.8440   17.7490 O   0  0  0  0  0
    8.7160   15.5760   15.5600 C   0  0  0  0  0
    8.2270   14.2770   15.9650 O   0  0  0  0  0
    9.1070   15.6140   14.0800 C   0  0  0  0  0
    9.5470   17.0150   13.7380 C   0  0  0  0  0
    6.8640   14.0980   15.6960 C   0  0  0  0  0
    6.5170   12.6600   15.9770 C   0  0  0  0  0
    5.0140   12.4380   15.8900 C   0  0  0  0  0
    4.2410   13.5020   16.6610 C   0  0  0  0  0
    4.7600   14.8800   16.3140 C   0  0  0  0  0
    7.2040   11.8450   15.0400 O   0  0  0  0  0
    4.7110   11.1420   16.3810 O   0  0  0  0  0
    2.8570   13.3930   16.3600 O   0  0  0  0  0
    6.1400   14.9380   16.5670 O   0  0  0  0  0
   11.5498   16.7913   14.3225 H   0  0  0  0  0
    9.6839   18.0327   16.3086 H   0  0  0  0  0
   11.3757   17.4886   16.5700 H   0  0  0  0  0
   10.7274   15.1606   16.1395 H   0  0  0  0  0
    9.3143   14.9745   17.9684 H   0  0  0  0  0
    7.9356   16.3281   15.7477 H   0  0  0  0  0
    8.2421   15.3349   13.4603 H   0  0  0  0  0
    9.9323   14.9105   13.8959 H   0  0  0  0  0
    9.8352   17.0543   12.6772 H   0  0  0  0  0
    8.7131   17.7095   13.9174 H   0  0  0  0  0
    6.6388   14.3473   14.6486 H   0  0  0  0  0
    6.8514   12.4009   16.9924 H   0  0  0  0  0
    4.7133   12.4941   14.8334 H   0  0  0  0  0
    4.3830   13.3344   17.7388 H   0  0  0  0  0
    4.2428   15.6319   16.9281 H   0  0  0  0  0
    4.5736   15.0847   15.2494 H   0  0  0  0  0
    8.1385   12.0001   15.1123 H   0  0  0  0  0
    5.2020   10.4951   15.8881 H   0  0  0  0  0
    2.5528   12.5217   16.5852 H   0  0  0  0  0
  1  2  1  0  0  0
  1  8  1  0  0  0
  2  3  1  0  0  0
  3  4  1  0  0  0
  3  5  1  0  0  0
  5  6  1  0  0  0
  5  7  1  0  0  0
  6  9  1  0  0  0
  7  8  1  0  0  0
  9 10  1  0  0  0
  9 17  1  0  0  0
 10 11  1  0  0  0
 10 14  1  0  0  0
 11 12  1  0  0  0
 11 15  1  0  0  0
 12 13  1  0  0  0
 12 16  1  0  0  0
 13 17  1  0  0  0
  1 18  1  0  0  0
  2 19  1  0  0  0
  2 20  1  0  0  0
  3 21  1  0  0  0
  4 22  1  0  0  0
  5 23  1  0  0  0
  7 24  1  0  0  0
  7 25  1  0  0  0
  8 26  1  0  0  0
  8 27  1  0  0  0
  9 28  1  0  0  0
 10 29  1  0  0  0
 11 30  1  0  0  0
 12 31  1  0  0  0
 13 32  1  0  0  0
 13 33  1  0  0  0
 14 34  1  0  0  0
 15 35  1  0  0  0
 16 36  1  0  0  0
M  END
$$$$
