### 
### Created by X-TOOL on Mon Oct 24 22:35:02 2005
### 

@<TRIPOS>MOLECULE
1z9g_ligand
   31    31     1     0     0
SMALL
GAST_HUCK


@<TRIPOS>ATOM
      1 SG         35.9650   42.6870   -6.7510 S.3       1 SUB1       -0.176
      2 CB2        35.1540   42.3440   -5.1990 C.3       1 SUB1        0.016
      3 CA1        36.2330   42.3660   -4.1280 C.3       1 SUB1        0.060
      4 CB1        35.5510   42.6630   -2.8070 C.3       1 SUB1        0.005
      5 CG         36.5110   42.8770   -1.6820 C.ar      1 SUB1       -0.041
      6 CD1        37.2780   44.0460   -1.7000 C.ar      1 SUB1       -0.060
      7 CD2        36.6020   41.9870   -0.6120 C.ar      1 SUB1       -0.060
      8 CE1        38.1670   44.3670   -0.6830 C.ar      1 SUB1       -0.069
      9 CE2        37.5240   42.2670    0.3960 C.ar      1 SUB1       -0.069
     10 CZ         38.2790   43.4440    0.3570 C.ar      1 SUB1       -0.069
     11 C1         38.2270   40.9690   -3.6580 C.2       1 SUB1        0.191
     12 O1         39.0170   41.9410   -3.6710 O.2       1 SUB1       -0.392
     13 N          36.9280   41.1070   -3.9110 N.am      1 SUB1       -0.279
     14 CA2        38.7180   39.4920   -3.4200 C.3       1 SUB1        0.076
     15 C2         38.6840   38.6030   -4.6890 C.2       1 SUB1        0.047
     16 O2         37.6450   38.5360   -5.4730 O.co2     1 SUB1       -0.564
     17 O3         39.7280   37.9510   -4.9200 O.co2     1 SUB1       -0.564
     18 H11        35.2831   42.6822   -7.4934 H         1 SUB1        0.102
     19 H21        34.6735   41.3551   -5.2327 H         1 SUB1        0.040
     20 H22        34.3960   43.1130   -4.9892 H         1 SUB1        0.040
     21 H31        36.9656   43.1474   -4.3783 H         1 SUB1        0.059
     22 H41        34.8982   41.8150   -2.5525 H         1 SUB1        0.045
     23 H42        34.9426   43.5718   -2.9246 H         1 SUB1        0.045
     24 H61        37.1748   44.7259   -2.5379 H         1 SUB1        0.056
     25 H71        35.9748   41.1041   -0.5654 H         1 SUB1        0.056
     26 H81        38.7430   45.2852   -0.6964 H         1 SUB1        0.060
     27 H91        37.6564   41.5686    1.2144 H         1 SUB1        0.060
     28 H101       38.9753   43.6459    1.1629 H         1 SUB1        0.056
     29 H131       36.3812   40.2710   -3.9559 H         1 SUB1        0.186
     30 H141       38.0720   39.0315   -2.6580 H         1 SUB1        0.072
     31 H142       39.7534   39.5272   -3.0503 H         1 SUB1        0.072
@<TRIPOS>BOND
     1    2    1 1  
     2    3    2 1  
     3    3    4 1  
     4   13    3 1  
     5    4    5 1  
     6    5    6 ar 
     7    5    7 ar 
     8    6    8 ar 
     9    7    9 ar 
    10    8   10 ar 
    11    9   10 ar 
    12   11   12 2  
    13   11   13 am 
    14   11   14 1  
    15   14   15 1  
    16   15   16 2  
    17   15   17 2  
    18    1   18 1  
    19    2   19 1  
    20    2   20 1  
    21    3   21 1  
    22    4   22 1  
    23    4   23 1  
    24    6   24 1  
    25    7   25 1  
    26    8   26 1  
    27    9   27 1  
    28   10   28 1  
    29   13   29 1  
    30   14   30 1  
    31   14   31 1  
@<TRIPOS>SUBSTRUCTURE
     1 SUB1        1 GROUP

