### 
### Created by X-TOOL on Sun Jun  3 12:51:58 2007
### 

@<TRIPOS>MOLECULE
2j47_ligand
   46    48     1     0     0
SMALL
GAST_HUCK


@<TRIPOS>ATOM
      1 O1          3.0100   -6.4480   34.3000 O.2       1 SUB1       -0.397
      2 C10         3.2140   -7.6070   34.6270 C.2       1 SUB1        0.176
      3 C12         4.0590   -7.9390   35.8400 C.3       1 SUB1        0.026
      4 N4          2.7230   -8.7070   34.0160 N.am      1 SUB1       -0.264
      5 C2          1.8830   -8.6750   32.8270 C.3       1 SUB1        0.147
      6 C3          2.7340   -8.3220   31.5950 C.3       1 SUB1        0.123
      7 O3          3.1570   -9.5410   30.9620 O.3       1 SUB1       -0.384
      8 C4          1.9610   -7.3370   30.6650 C.3       1 SUB1        0.119
      9 O4          2.7910   -7.0590   29.5500 O.3       1 SUB1       -0.386
     10 C5          1.6360   -6.0050   31.4510 C.3       1 SUB1        0.123
     11 C6          1.0760   -4.9320   30.4980 C.3       1 SUB1        0.078
     12 O5         -0.0400   -5.3970   29.7370 O.3       1 SUB1       -0.392
     13 C1          0.6770   -7.7480   32.9170 C.2       1 SUB1        0.149
     14 N1          0.6290   -6.5290   32.3460 N.pl3     1 SUB1       -0.230
     15 C7         -0.6280   -6.0480   32.6320 C.2       1 SUB1        0.057
     16 C8         -1.2640   -6.9870   33.4310 C.2       1 SUB1        0.084
     17 N2         -0.4310   -8.0320   33.6020 N.2       1 SUB1       -0.317
     18 C9         -2.5440   -6.9170   33.9830 C.2       1 SUB1        0.216
     19 O2         -3.2380   -5.9440   33.7790 O.2       1 SUB1       -0.387
     20 N3         -2.9620   -8.0020   34.6850 N.am      1 SUB1       -0.237
     21 C11        -4.2070   -8.1070   35.3040 C.ar      1 SUB1        0.065
     22 C17        -4.9020   -9.3190   35.4250 C.ar      1 SUB1       -0.041
     23 C16        -6.1220   -9.4030   36.1220 C.ar      1 SUB1       -0.075
     24 C15        -6.6610   -8.2640   36.7180 C.ar      1 SUB1       -0.077
     25 C14        -5.9870   -7.0530   36.6100 C.ar      1 SUB1       -0.075
     26 C13        -4.7570   -6.9750   35.9210 C.ar      1 SUB1       -0.041
     27 H           5.0615   -7.5331   35.7050 H         1 SUB1        0.047
     28 H           3.6048   -7.5007   36.7286 H         1 SUB1        0.047
     29 H           4.1164   -9.0213   35.9560 H         1 SUB1        0.047
     30 H           2.9553   -9.6176   34.4125 H         1 SUB1        0.189
     31 H           1.4667   -9.6782   32.7351 H         1 SUB1        0.082
     32 H           3.6400   -7.7863   31.8782 H         1 SUB1        0.067
     33 H           3.6894   -9.3319   30.1911 H         1 SUB1        0.210
     34 H           1.0192   -7.7753   30.3347 H         1 SUB1        0.065
     35 H           2.9848   -7.8762   29.0851 H         1 SUB1        0.210
     36 H           2.4738   -5.5061   31.9381 H         1 SUB1        0.071
     37 H           1.8670   -4.6601   29.7991 H         1 SUB1        0.059
     38 H           0.7402   -4.0899   31.1032 H         1 SUB1        0.059
     39 H          -0.7458   -5.6583   30.3330 H         1 SUB1        0.209
     40 H          -1.0478   -5.1011   32.2925 H         1 SUB1        0.093
     41 H          -2.3226   -8.7927   34.7647 H         1 SUB1        0.224
     42 H          -4.4874  -10.2177   34.9683 H         1 SUB1        0.050
     43 H          -6.6443  -10.3569   36.1956 H         1 SUB1        0.058
     44 H          -7.6026   -8.3224   37.2639 H         1 SUB1        0.049
     45 H          -6.4116   -6.1561   37.0610 H         1 SUB1        0.058
     46 H          -4.2288   -6.0230   35.8683 H         1 SUB1        0.050
@<TRIPOS>BOND
     1    1    2 2  
     2    2    3 1  
     3    2    4 am 
     4    4    5 1  
     5    5    6 1  
     6    5   13 1  
     7    6    7 1  
     8    6    8 1  
     9    8    9 1  
    10    8   10 1  
    11   10   11 1  
    12   10   14 1  
    13   11   12 1  
    14   13   14 1  
    15   13   17 2  
    16   14   15 1  
    17   15   16 2  
    18   16   17 1  
    19   16   18 1  
    20   18   19 2  
    21   18   20 am 
    22   20   21 1  
    23   21   22 ar 
    24   21   26 ar 
    25   22   23 ar 
    26   23   24 ar 
    27   24   25 ar 
    28   25   26 ar 
    29    3   27 1  
    30    3   28 1  
    31    3   29 1  
    32    4   30 1  
    33    5   31 1  
    34    6   32 1  
    35    7   33 1  
    36    8   34 1  
    37    9   35 1  
    38   10   36 1  
    39   11   37 1  
    40   11   38 1  
    41   12   39 1  
    42   15   40 1  
    43   20   41 1  
    44   22   42 1  
    45   23   43 1  
    46   24   44 1  
    47   25   45 1  
    48   26   46 1  
@<TRIPOS>SUBSTRUCTURE
     1 SUB1        1 GROUP

