### 
### Created by X-TOOL on Mon Oct 24 23:51:34 2005
### 

@<TRIPOS>MOLECULE
1b8y_ligand
   47    49     1     0     0
SMALL
GAST_HUCK


@<TRIPOS>ATOM
      1 H91        16.7826    9.4560   20.4978 H         1 SUB1        0.051
      2 H101       15.8490    7.9076   22.2028 H         1 SUB1        0.060
      3 H111       18.8064    8.4745   15.6245 H         1 SUB1        0.031
      4 H112       17.6443    9.3673   14.5856 H         1 SUB1        0.031
      5 H121       15.8843    6.5885   17.3897 H         1 SUB1        0.051
      6 H151       14.9749    5.0140   19.1110 H         1 SUB1        0.060
      7 H181       17.6228   11.0715   15.9752 H         1 SUB1        0.046
      8 C1         16.4370    8.1110   18.8350 C.ar      1 SUB1        0.029
      9 C2         16.4080    8.4840   20.1980 C.ar      1 SUB1       -0.046
     10 C3         15.9000    7.6090   21.1620 C.ar      1 SUB1       -0.047
     11 C7         18.0070    9.2300   15.6150 C.3       1 SUB1       -0.023
     12 C6         15.9040    6.8600   18.4390 C.ar      1 SUB1       -0.046
     13 O2         15.0640    3.8730   21.5820 O.2       1 SUB1       -0.152
     14 C4         15.4570    6.3390   20.7640 C.ar      1 SUB1        0.095
     15 C5         15.3990    5.9670   19.4060 C.ar      1 SUB1       -0.047
     16 O3         11.8280    7.3580   21.4890 O.co2     1 SUB1       -0.565
     17 S          15.0200    5.2200   22.0640 S.o2      1 SUB1        0.065
     18 C11        18.5830   10.5510   16.1060 C.3       1 SUB1       -0.004
     19 C13        18.6300   10.8780   17.5890 C.3       1 SUB1       -0.023
     20 C15        17.4540   10.3170   18.3620 C.3       1 SUB1        0.020
     21 N1         16.9670    8.9940   17.9170 N.3       1 SUB1       -0.252
     22 C18        16.8520    8.7250   16.4730 C.3       1 SUB1        0.020
     23 C10        20.6670   13.0040   13.2980 C.ar      1 SUB1       -0.069
     24 C12        21.2510   12.7380   14.5490 C.ar      1 SUB1       -0.069
     25 C14        20.5460   11.9450   15.4800 C.ar      1 SUB1       -0.060
     26 C16        19.2700   11.4320   15.1510 C.ar      1 SUB1       -0.040
     27 C17        18.6770   11.7290   13.9010 C.ar      1 SUB1       -0.060
     28 C19        19.3870   12.5120   12.9650 C.ar      1 SUB1       -0.069
     29 O1         15.7680    5.6020   23.2110 O.2       1 SUB1       -0.152
     30 N2         13.4270    5.4730   22.6580 N.am      1 SUB1       -0.235
     31 C8         12.2390    5.0450   21.9600 C.3       1 SUB1        0.066
     32 C9         11.8140    6.1060   21.0180 C.2       1 SUB1        0.046
     33 O4         11.5150    5.8160   19.9150 O.co2     1 SUB1       -0.565
     34 H191       19.5563   10.4599   18.0098 H         1 SUB1        0.031
     35 H192       18.6352   11.9718   17.7057 H         1 SUB1        0.031
     36 H201       17.7536   10.2296   19.4168 H         1 SUB1        0.048
     37 H202       16.6213   11.0304   18.2752 H         1 SUB1        0.048
     38 H221       15.9287    9.2019   16.1123 H         1 SUB1        0.048
     39 H222       16.7798    7.6359   16.3362 H         1 SUB1        0.048
     40 H231       21.2114   13.5995   12.5741 H         1 SUB1        0.056
     41 H241       22.2287   13.1362   14.7951 H         1 SUB1        0.060
     42 H251       20.9832   11.7291   16.4481 H         1 SUB1        0.056
     43 H271       17.6862   11.3585   13.6641 H         1 SUB1        0.056
     44 H281       18.9519   12.7337   11.9972 H         1 SUB1        0.060
     45 H301       13.3177    5.9420   23.5344 H         1 SUB1        0.171
     46 H311       11.4348    4.8550   22.6861 H         1 SUB1        0.070
     47 H312       12.4539    4.1223   21.4010 H         1 SUB1        0.070
@<TRIPOS>BOND
     1    9    1 1  
     2   10    2 1  
     3   11    3 1  
     4   11    4 1  
     5   21    8 1  
     6    8   12 ar 
     7    8    9 ar 
     8    9   10 ar 
     9   10   14 ar 
    10   14   17 1  
    11   15   14 ar 
    12   12   15 ar 
    13   17   13 2  
    14   17   30 1  
    15   17   29 2  
    16   30   31 1  
    17   31   32 1  
    18   32   16 2  
    19   32   33 2  
    20   21   22 1  
    21   20   21 1  
    22   19   20 1  
    23   18   19 1  
    24   18   11 1  
    25   18   26 1  
    26   26   27 ar 
    27   26   25 ar 
    28   25   24 ar 
    29   24   23 ar 
    30   23   28 ar 
    31   28   27 ar 
    32   11   22 1  
    33   12    5 1  
    34   15    6 1  
    35   18    7 1  
    36   19   34 1  
    37   19   35 1  
    38   20   36 1  
    39   20   37 1  
    40   22   38 1  
    41   22   39 1  
    42   23   40 1  
    43   24   41 1  
    44   25   42 1  
    45   27   43 1  
    46   28   44 1  
    47   30   45 1  
    48   31   46 1  
    49   31   47 1  
@<TRIPOS>SUBSTRUCTURE
     1 SUB1        1 GROUP

