### 
### Created by X-TOOL on Sun Jun  3 11:17:10 2007
### 

@<TRIPOS>MOLECULE
2bfr_ligand
   39    41     1     0     0
SMALL
GAST_HUCK


@<TRIPOS>ATOM
      1 PB         15.1820   76.9810   -7.6950 P.3       1 SUB1        0.652
      2 O1B        14.5970   75.6860   -7.2680 O.2       1 SUB1       -0.209
      3 O2B        16.1960   76.8530   -8.8000 O.2       1 SUB1       -0.209
      4 O3B        14.0590   78.0470   -8.0200 O.2       1 SUB1       -0.209
      5 PA         16.2010   78.9400   -5.8420 P.3       1 SUB1        0.543
      6 O1A        17.0470   78.8450   -4.5930 O.2       1 SUB1       -0.277
      7 O2A        16.7290   79.8770   -6.9030 O.2       1 SUB1       -0.277
      8 O3A        16.0070   77.4940   -6.4250 O.3       1 SUB1       -0.043
      9 O5         14.7550   79.3080   -5.2870 O.3       1 SUB1       -0.216
     10 C5         14.0540   78.4510   -4.3280 C.3       1 SUB1        0.116
     11 C4         13.2980   79.2290   -3.2410 C.3       1 SUB1        0.119
     12 O4         14.1050   79.2530   -2.0290 O.3       1 SUB1       -0.336
     13 C3         12.9920   80.7250   -3.5440 C.3       1 SUB1        0.115
     14 O3         11.5850   80.9580   -3.3020 O.3       1 SUB1       -0.386
     15 C2         13.9690   81.4680   -2.6160 C.3       1 SUB1        0.139
     16 O2         13.4970   82.7600   -2.2000 O.3       1 SUB1       -0.384
     17 C1         14.0800   80.5270   -1.4200 C.3       1 SUB1        0.201
     18 N9         15.3480   80.7210   -0.6060 N.pl3     1 SUB1       -0.192
     19 C8         16.5010   81.3570   -0.9680 C.2       1 SUB1        0.112
     20 N7         17.4390   81.3520    0.0010 N.2       1 SUB1       -0.296
     21 C5         16.8450   80.6760    1.0220 C.ar      1 SUB1        0.105
     22 C6         17.3250   80.3260    2.3570 C.ar      1 SUB1        0.130
     23 N6         18.4810   80.6110    2.8500 N.pl3     1 SUB1       -0.315
     24 N1         16.4030   79.6180    3.1220 N.ar      1 SUB1       -0.270
     25 C2         15.1320   79.2690    2.6670 C.ar      1 SUB1        0.053
     26 N3         14.6760   79.5830    1.4460 N.ar      1 SUB1       -0.271
     27 C4         15.5500   80.2760    0.6680 C.ar      1 SUB1        0.161
     28 H          14.8052   77.8396   -3.8280 H         1 SUB1        0.065
     29 H          13.3177   77.8724   -4.8859 H         1 SUB1        0.065
     30 H          12.3470   78.7021   -3.1624 H         1 SUB1        0.065
     31 H          13.1420   81.0620   -4.5697 H         1 SUB1        0.065
     32 H          11.3781   81.8776   -3.4842 H         1 SUB1        0.210
     33 H          14.9144   81.6808   -3.1151 H         1 SUB1        0.068
     34 H          12.6693   82.6591   -1.7242 H         1 SUB1        0.210
     35 H          13.2676   80.6913   -0.7121 H         1 SUB1        0.100
     36 H          16.6484   81.8222   -1.9427 H         1 SUB1        0.135
     37 H          19.1596   81.1294    2.2922 H         1 SUB1        0.182
     38 H          18.7174   80.3182    3.7981 H         1 SUB1        0.182
     39 H          14.4765   78.7132    3.3374 H         1 SUB1        0.100
@<TRIPOS>BOND
     1    1    2 2  
     2    1    3 2  
     3    1    4 2  
     4    8    1 1  
     5    5    6 2  
     6    5    7 2  
     7    5    8 1  
     8    5    9 1  
     9    9   10 1  
    10   10   11 1  
    11   11   12 1  
    12   11   13 1  
    13   12   17 1  
    14   13   14 1  
    15   13   15 1  
    16   15   16 1  
    17   15   17 1  
    18   17   18 1  
    19   18   19 1  
    20   18   27 1  
    21   19   20 2  
    22   20   21 1  
    23   21   22 ar 
    24   21   27 ar 
    25   22   23 1  
    26   22   24 ar 
    27   24   25 ar 
    28   25   26 ar 
    29   26   27 ar 
    30   10   28 1  
    31   10   29 1  
    32   11   30 1  
    33   13   31 1  
    34   14   32 1  
    35   15   33 1  
    36   16   34 1  
    37   17   35 1  
    38   19   36 1  
    39   23   37 1  
    40   23   38 1  
    41   25   39 1  
@<TRIPOS>SUBSTRUCTURE
     1 SUB1        1 GROUP

