### 
### Created by X-TOOL on Mon Oct 24 21:59:22 2005
### 

@<TRIPOS>MOLECULE
1w1g_ligand
   48    48     1     0     0
SMALL
GAST_HUCK


@<TRIPOS>ATOM
      1 O0F        11.5310   38.4930    0.4950 O.3       1 SUB1       -0.392
      2 C0E        10.6780   37.4030    0.0720 C.3       1 SUB1        0.073
      3 C0C         9.6760   37.1030    1.1870 C.3       1 SUB1        0.105
      4 O0D         8.9630   35.9040    0.9030 O.3       1 SUB1       -0.387
      5 C0B        10.3790   36.8950    2.5410 C.3       1 SUB1        0.090
      6 OP1         9.3870   36.7360    3.5720 O.3       1 SUB1       -0.318
      7 P1          9.6300   37.4190    4.9690 P.3       1 SUB1        0.272
      8 OP3         8.3200   37.0290    5.8360 O.co2     1 SUB1       -0.532
      9 OP2         9.8570   38.8910    4.8680 O.co2     1 SUB1       -0.532
     10 O1         10.9320   36.7720    5.5690 O.3       1 SUB1       -0.312
     11 C1         10.8780   35.3570    5.8410 C.3       1 SUB1        0.130
     12 C2         10.5370   35.0660    7.3250 C.3       1 SUB1        0.120
     13 O2         11.5220   35.6490    8.1940 O.3       1 SUB1       -0.386
     14 C3         10.5860   33.5280    7.5490 C.3       1 SUB1        0.138
     15 O3         10.3290   33.2360    8.9320 O.3       1 SUB1       -0.313
     16 P3          8.9990   32.3560    9.1710 P.3       1 SUB1        0.206
     17 O11         7.7630   33.1270    8.6190 O.co2     1 SUB1       -0.535
     18 O10         8.9080   32.3040   10.7820 O.co2     1 SUB1       -0.535
     19 O12         9.0770   31.0100    8.4850 O.co2     1 SUB1       -0.535
     20 C4         11.9580   32.9330    7.2070 C.3       1 SUB1        0.142
     21 O4         11.9070   31.5000    7.2650 O.3       1 SUB1       -0.313
     22 P4         12.4650   30.7320    8.6070 P.3       1 SUB1        0.206
     23 OP5        11.1270   29.9890    9.0330 O.co2     1 SUB1       -0.535
     24 OP6        13.5520   29.7770    8.0170 O.co2     1 SUB1       -0.535
     25 OP4        13.1510   31.6880    9.5730 O.co2     1 SUB1       -0.535
     26 C5         12.3740   33.3010    5.7530 C.3       1 SUB1        0.138
     27 O5         13.7360   32.9650    5.6540 O.3       1 SUB1       -0.313
     28 P5         14.1580   31.5880    4.8630 P.3       1 SUB1        0.206
     29 OP8        14.9470   30.7790    5.9970 O.co2     1 SUB1       -0.535
     30 OP7        15.3040   31.9520    3.8620 O.co2     1 SUB1       -0.535
     31 OP9        12.9410   30.8620    4.3870 O.co2     1 SUB1       -0.535
     32 C6         12.2340   34.7920    5.4920 C.3       1 SUB1        0.120
     33 O6         12.4830   35.0130    4.0900 O.3       1 SUB1       -0.386
     34 H11        12.1582   38.6877   -0.1916 H         1 SUB1        0.209
     35 H21        11.2892   36.5102   -0.1263 H         1 SUB1        0.058
     36 H22        10.1387   37.6888   -0.8431 H         1 SUB1        0.058
     37 H31         8.9714   37.9440    1.2654 H         1 SUB1        0.064
     38 H41         8.3451   35.7308    1.6035 H         1 SUB1        0.210
     39 H51        11.0072   37.7692    2.7671 H         1 SUB1        0.063
     40 H52        11.0079   35.9938    2.4940 H         1 SUB1        0.063
     41 H111       10.1092   34.8928    5.2058 H         1 SUB1        0.069
     42 H121        9.5385   35.4607    7.5641 H         1 SUB1        0.065
     43 H131       11.2968   35.4606    9.0975 H         1 SUB1        0.210
     44 H141        9.8186   33.0540    6.9194 H         1 SUB1        0.071
     45 H201       12.7052   33.3134    7.9190 H         1 SUB1        0.071
     46 H261       11.7721   32.7353    5.0266 H         1 SUB1        0.071
     47 H321       12.9911   35.3224    6.0882 H         1 SUB1        0.065
     48 H331       12.4020   35.9397    3.8974 H         1 SUB1        0.210
@<TRIPOS>BOND
     1    1    2 1  
     2    2    3 1  
     3    3    4 1  
     4    3    5 1  
     5    5    6 1  
     6    6    7 1  
     7    7    8 2  
     8    7    9 2  
     9    7   10 1  
    10   10   11 1  
    11   11   12 1  
    12   11   32 1  
    13   12   13 1  
    14   12   14 1  
    15   14   15 1  
    16   14   20 1  
    17   15   16 1  
    18   16   17 2  
    19   16   18 2  
    20   16   19 2  
    21   20   21 1  
    22   20   26 1  
    23   21   22 1  
    24   22   23 2  
    25   22   24 2  
    26   22   25 2  
    27   26   27 1  
    28   26   32 1  
    29   27   28 1  
    30   28   29 2  
    31   28   30 2  
    32   28   31 2  
    33   32   33 1  
    34    1   34 1  
    35    2   35 1  
    36    2   36 1  
    37    3   37 1  
    38    4   38 1  
    39    5   39 1  
    40    5   40 1  
    41   11   41 1  
    42   12   42 1  
    43   13   43 1  
    44   14   44 1  
    45   20   45 1  
    46   26   46 1  
    47   32   47 1  
    48   33   48 1  
@<TRIPOS>SUBSTRUCTURE
     1 SUB1        1 GROUP

