1w1g_ligand
  -I-interpret- 

 48 48  0  0  0  0  0  0  0  0999 V2000
   11.5310   38.4930    0.4950 O   0  0  0  0  0
   10.6780   37.4030    0.0720 C   0  0  0  0  0
    9.6760   37.1030    1.1870 C   0  0  0  0  0
    8.9630   35.9040    0.9030 O   0  0  0  0  0
   10.3790   36.8950    2.5410 C   0  0  0  0  0
    9.3870   36.7360    3.5720 O   0  0  0  0  0
    9.6300   37.4190    4.9690 P   0  0  0  0  0
    8.3200   37.0290    5.8360 O   0  5  0  0  0
    9.8570   38.8910    4.8680 O   0  0  0  0  0
   10.9320   36.7720    5.5690 O   0  0  0  0  0
   10.8780   35.3570    5.8410 C   0  0  0  0  0
   10.5370   35.0660    7.3250 C   0  0  0  0  0
   11.5220   35.6490    8.1940 O   0  0  0  0  0
   10.5860   33.5280    7.5490 C   0  0  0  0  0
   10.3290   33.2360    8.9320 O   0  0  0  0  0
    8.9990   32.3560    9.1710 P   0  0  0  0  0
    7.7630   33.1270    8.6190 O   0  5  0  0  0
    8.9080   32.3040   10.7820 O   0  5  0  0  0
    9.0770   31.0100    8.4850 O   0  0  0  0  0
   11.9580   32.9330    7.2070 C   0  0  0  0  0
   11.9070   31.5000    7.2650 O   0  0  0  0  0
   12.4650   30.7320    8.6070 P   0  0  0  0  0
   11.1270   29.9890    9.0330 O   0  5  0  0  0
   13.5520   29.7770    8.0170 O   0  5  0  0  0
   13.1510   31.6880    9.5730 O   0  0  0  0  0
   12.3740   33.3010    5.7530 C   0  0  0  0  0
   13.7360   32.9650    5.6540 O   0  0  0  0  0
   14.1580   31.5880    4.8630 P   0  0  0  0  0
   14.9470   30.7790    5.9970 O   0  5  0  0  0
   15.3040   31.9520    3.8620 O   0  5  0  0  0
   12.9410   30.8620    4.3870 O   0  0  0  0  0
   12.2340   34.7920    5.4920 C   0  0  0  0  0
   12.4830   35.0130    4.0900 O   0  0  0  0  0
   12.1582   38.6877   -0.1916 H   0  0  0  0  0
   11.2892   36.5102   -0.1263 H   0  0  0  0  0
   10.1387   37.6888   -0.8431 H   0  0  0  0  0
    8.9714   37.9440    1.2654 H   0  0  0  0  0
    8.3451   35.7308    1.6035 H   0  0  0  0  0
   11.0072   37.7692    2.7671 H   0  0  0  0  0
   11.0079   35.9938    2.4940 H   0  0  0  0  0
   10.1092   34.8928    5.2058 H   0  0  0  0  0
    9.5385   35.4607    7.5641 H   0  0  0  0  0
   11.2968   35.4606    9.0975 H   0  0  0  0  0
    9.8186   33.0540    6.9194 H   0  0  0  0  0
   12.7052   33.3134    7.9190 H   0  0  0  0  0
   11.7721   32.7353    5.0266 H   0  0  0  0  0
   12.9911   35.3224    6.0882 H   0  0  0  0  0
   12.4020   35.9397    3.8974 H   0  0  0  0  0
  1  2  1  0  0  0
  2  3  1  0  0  0
  3  4  1  0  0  0
  3  5  1  0  0  0
  5  6  1  0  0  0
  6  7  1  0  0  0
  7  8  1  0  0  0
  7  9  2  0  0  0
  7 10  1  0  0  0
 10 11  1  0  0  0
 11 12  1  0  0  0
 11 32  1  0  0  0
 12 13  1  0  0  0
 12 14  1  0  0  0
 14 15  1  0  0  0
 14 20  1  0  0  0
 15 16  1  0  0  0
 16 17  1  0  0  0
 16 18  1  0  0  0
 16 19  2  0  0  0
 20 21  1  0  0  0
 20 26  1  0  0  0
 21 22  1  0  0  0
 22 23  1  0  0  0
 22 24  1  0  0  0
 22 25  2  0  0  0
 26 27  1  0  0  0
 26 32  1  0  0  0
 27 28  1  0  0  0
 28 29  1  0  0  0
 28 30  1  0  0  0
 28 31  2  0  0  0
 32 33  1  0  0  0
  1 34  1  0  0  0
  2 35  1  0  0  0
  2 36  1  0  0  0
  3 37  1  0  0  0
  4 38  1  0  0  0
  5 39  1  0  0  0
  5 40  1  0  0  0
 11 41  1  0  0  0
 12 42  1  0  0  0
 13 43  1  0  0  0
 14 44  1  0  0  0
 20 45  1  0  0  0
 26 46  1  0  0  0
 32 47  1  0  0  0
 33 48  1  0  0  0
M  END
$$$$
