### 
### Created by X-TOOL on Mon Oct 24 21:58:56 2005
### 

@<TRIPOS>MOLECULE
1y20_ligand
   14    14     1     0     0
SMALL
GAST_HUCK


@<TRIPOS>ATOM
      1 C3         20.8050   33.4790    6.9700 C.3       1 SUB1       -0.040
      2 C4         20.0800   33.2810    8.2730 C.3       1 SUB1       -0.040
      3 C1         21.3130   32.5010    8.0020 C.3       1 SUB1        0.027
      4 C2         22.6290   32.8060    8.6750 C.2       1 SUB1        0.176
      5 O2         22.8360   34.0010    9.0280 O.co2     1 SUB1       -0.460
      6 O1         23.3420   31.8240    8.9450 O.co2     1 SUB1       -0.460
      7 N1         21.1810   31.0940    7.5520 N.4       1 SUB1        0.150
      8 H11        21.3518   34.4140    6.7782 H         1 SUB1        0.016
      9 H12        20.3644   33.1126    6.0310 H         1 SUB1        0.016
     10 H21        19.1032   32.7753    8.2854 H         1 SUB1        0.016
     11 H22        20.0907   34.0766    9.0325 H         1 SUB1        0.016
     12 H71        22.0976   30.6993    7.4100 H         1 SUB1        0.195
     13 H72        20.6650   31.0650    6.6866 H         1 SUB1        0.195
     14 H73        20.6908   30.5614    8.2535 H         1 SUB1        0.195
@<TRIPOS>BOND
     1    1    2 1  
     2    1    3 1  
     3    2    3 1  
     4    3    4 1  
     5    3    7 1  
     6    4    5 2  
     7    4    6 2  
     8    1    8 1  
     9    1    9 1  
    10    2   10 1  
    11    2   11 1  
    12    7   12 1  
    13    7   13 1  
    14    7   14 1  
@<TRIPOS>SUBSTRUCTURE
     1 SUB1        1 GROUP

