2afx_ligand
  -I-interpret- 

 22 23  0  0  0  0  0  0  0  0999 V2000
  -15.9250    2.1880   21.7000 C   0  0  0  0  0
  -17.1600    2.7060   21.4980 C   0  0  0  0  0
  -15.2190    3.1340   22.4080 N   0  0  0  0  0
  -15.9980    4.1790   22.6340 C   0  0  0  0  0
  -17.1850    3.9410   22.0900 N   0  0  0  0  0
  -13.9380    2.8800   23.0590 C   0  0  0  0  0
  -12.8690    3.8840   22.8220 C   0  0  0  0  0
  -12.7360    4.5070   21.5830 C   0  0  0  0  0
  -12.0340    4.2740   23.8620 C   0  0  0  0  0
  -11.7860    5.5210   21.3840 C   0  0  0  0  0
  -11.0850    5.2840   23.6760 C   0  0  0  0  0
  -10.9680    5.9080   22.4270 C   0  0  0  0  0
  -15.5622    1.2153   21.3679 H   0  0  0  0  0
  -17.9815    2.2288   20.9636 H   0  0  0  0  0
  -15.7135    5.0816   23.1748 H   0  0  0  0  0
  -13.5691    1.9407   22.6471 H   0  0  0  0  0
  -14.1344    2.8929   24.1311 H   0  0  0  0  0
  -13.3785    4.2028   20.7567 H   0  0  0  0  0
  -12.1197    3.7872   24.8335 H   0  0  0  0  0
  -11.6943    6.0011   20.4098 H   0  0  0  0  0
  -10.4382    5.5849   24.5002 H   0  0  0  0  0
  -10.2320    6.6982   22.2788 H   0  0  0  0  0
  1  2  2  0  0  0
  1  3  1  0  0  0
  2  5  1  0  0  0
  3  4  1  0  0  0
  3  6  1  0  0  0
  4  5  2  0  0  0
  6  7  1  0  0  0
  7  8  4  0  0  0
  7  9  4  0  0  0
  8 10  4  0  0  0
  9 11  4  0  0  0
 10 12  4  0  0  0
 11 12  4  0  0  0
  1 13  1  0  0  0
  2 14  1  0  0  0
  4 15  1  0  0  0
  6 16  1  0  0  0
  6 17  1  0  0  0
  8 18  1  0  0  0
  9 19  1  0  0  0
 10 20  1  0  0  0
 11 21  1  0  0  0
 12 22  1  0  0  0
M  END
$$$$
