### 
### Created by X-TOOL on Sun Jun  3 11:16:37 2007
### 

@<TRIPOS>MOLECULE
2afx_ligand
   22    23     1     0     0
SMALL
GAST_HUCK


@<TRIPOS>ATOM
      1 C1        -15.9250    2.1880   21.7000 C.2       1 SUB1        0.038
      2 C2        -17.1600    2.7060   21.4980 C.2       1 SUB1       -0.023
      3 N1        -15.2190    3.1340   22.4080 N.pl3     1 SUB1       -0.241
      4 C3        -15.9980    4.1790   22.6340 C.2       1 SUB1        0.099
      5 N2        -17.1850    3.9410   22.0900 N.2       1 SUB1       -0.330
      6 C4        -13.9380    2.8800   23.0590 C.3       1 SUB1        0.092
      7 C5        -12.8690    3.8840   22.8220 C.ar      1 SUB1       -0.012
      8 C6        -12.7360    4.5070   21.5830 C.ar      1 SUB1       -0.058
      9 C7        -12.0340    4.2740   23.8620 C.ar      1 SUB1       -0.058
     10 C8        -11.7860    5.5210   21.3840 C.ar      1 SUB1       -0.068
     11 C9        -11.0850    5.2840   23.6760 C.ar      1 SUB1       -0.068
     12 C10       -10.9680    5.9080   22.4270 C.ar      1 SUB1       -0.069
     13 H         -15.5622    1.2153   21.3679 H         1 SUB1        0.086
     14 H         -17.9815    2.2288   20.9636 H         1 SUB1        0.044
     15 H         -15.7135    5.0816   23.1748 H         1 SUB1        0.122
     16 H         -13.5691    1.9407   22.6471 H         1 SUB1        0.079
     17 H         -14.1344    2.8929   24.1311 H         1 SUB1        0.079
     18 H         -13.3785    4.2028   20.7567 H         1 SUB1        0.056
     19 H         -12.1197    3.7872   24.8335 H         1 SUB1        0.056
     20 H         -11.6943    6.0011   20.4098 H         1 SUB1        0.060
     21 H         -10.4382    5.5849   24.5002 H         1 SUB1        0.060
     22 H         -10.2320    6.6982   22.2788 H         1 SUB1        0.056
@<TRIPOS>BOND
     1    1    2 2  
     2    1    3 1  
     3    2    5 1  
     4    3    4 1  
     5    3    6 1  
     6    4    5 2  
     7    6    7 1  
     8    7    8 ar 
     9    7    9 ar 
    10    8   10 ar 
    11    9   11 ar 
    12   10   12 ar 
    13   11   12 ar 
    14    1   13 1  
    15    2   14 1  
    16    4   15 1  
    17    6   16 1  
    18    6   17 1  
    19    8   18 1  
    20    9   19 1  
    21   10   20 1  
    22   11   21 1  
    23   12   22 1  
@<TRIPOS>SUBSTRUCTURE
     1 SUB1        1 GROUP

