### 
### Created by X-TOOL on Sun Jun  3 11:23:55 2007
### 

@<TRIPOS>MOLECULE
2fvd_ligand
   51    53     1     0     0
SMALL
GAST_HUCK


@<TRIPOS>ATOM
      1 N1          6.0060   26.4970    6.9800 N.am      1 SUB1       -0.238
      2 C2          5.2280   26.2350    5.7370 C.3       1 SUB1        0.031
      3 C3          4.4250   27.4970    5.3560 C.3       1 SUB1       -0.012
      4 C4          3.4740   27.9120    6.5080 C.3       1 SUB1        0.046
      5 C5          4.2630   28.0220    7.8590 C.3       1 SUB1       -0.012
      6 C6          5.0840   26.7430    8.1290 C.3       1 SUB1        0.031
      7 N7          2.8530   29.1930    6.1450 N.pl3     1 SUB1       -0.287
      8 C8          1.7690   29.5320    6.9000 C.ar      1 SUB1        0.179
      9 N9          1.0690   28.5960    7.5970 N.ar      1 SUB1       -0.266
     10 C10         0.0490   28.9490    8.3170 C.ar      1 SUB1        0.019
     11 C11        -0.4000   30.3250    8.4220 C.ar      1 SUB1        0.085
     12 C12         0.3640   31.2870    7.6590 C.ar      1 SUB1        0.130
     13 N13         1.4370   30.8560    6.9140 N.ar      1 SUB1       -0.236
     14 C14        -1.5430   30.6550    9.2600 C.2       1 SUB1        0.149
     15 O15        -1.9700   31.8210    9.3190 O.2       1 SUB1       -0.386
     16 C16        -2.1970   29.6470   10.0640 C.ar      1 SUB1        0.092
     17 C17        -3.5480   29.2590    9.7500 C.ar      1 SUB1        0.177
     18 C18        -4.2120   28.2570   10.5240 C.ar      1 SUB1        0.159
     19 C19        -3.5480   27.6250   11.6160 C.ar      1 SUB1       -0.034
     20 C20        -2.2140   27.9920   11.9500 C.ar      1 SUB1       -0.032
     21 C21        -1.5100   29.0040   11.1890 C.ar      1 SUB1        0.105
     22 O22        -0.1880   29.4010   11.4900 O.3       1 SUB1       -0.319
     23 C23         0.5550   28.3980   12.2270 C.3       1 SUB1        0.060
     24 F24        -4.2020   29.8250    8.7400 F         1 SUB1       -0.181
     25 F25        -5.4500   27.9070   10.2290 F         1 SUB1       -0.192
     26 N26         0.0830   32.6030    7.6390 N.pl3     1 SUB1       -0.313
     27 S27         7.0630   25.2110    7.3100 S.o2      1 SUB1        0.038
     28 C28         6.1790   23.6620    7.7100 C.3       1 SUB1        0.073
     29 O29         7.8710   25.5860    8.4490 O.2       1 SUB1       -0.156
     30 O30         7.9110   25.0020    6.1680 O.2       1 SUB1       -0.156
     31 H           4.5416   25.4054    5.9064 H         1 SUB1        0.048
     32 H           5.9121   25.9818    4.9271 H         1 SUB1        0.048
     33 H           3.8296   27.2806    4.4690 H         1 SUB1        0.030
     34 H           5.1220   28.3128    5.1640 H         1 SUB1        0.030
     35 H           2.6993   27.1589    6.6517 H         1 SUB1        0.056
     36 H           3.5478   28.1551    8.6707 H         1 SUB1        0.030
     37 H           4.9468   28.8684    7.7956 H         1 SUB1        0.030
     38 H           5.6649   26.8682    9.0428 H         1 SUB1        0.048
     39 H           4.4100   25.8942    8.2444 H         1 SUB1        0.048
     40 H           3.2042   29.7813    5.3894 H         1 SUB1        0.188
     41 H          -0.4936   28.1795    8.8662 H         1 SUB1        0.090
     42 H          -4.0630   26.8593   12.1962 H         1 SUB1        0.060
     43 H          -1.7159   27.5056   12.7887 H         1 SUB1        0.051
     44 H           0.0490   28.1931   13.1704 H         1 SUB1        0.058
     45 H           0.6113   27.4831   11.6372 H         1 SUB1        0.058
     46 H           1.5615   28.7663   12.4256 H         1 SUB1        0.058
     47 H           0.6572   33.2388    7.0854 H         1 SUB1        0.183
     48 H          -0.7042   32.9646    8.1774 H         1 SUB1        0.183
     49 H           6.9037   22.8773    7.9271 H         1 SUB1        0.048
     50 H           5.5434   23.8224    8.5809 H         1 SUB1        0.048
     51 H           5.5646   23.3659    6.8598 H         1 SUB1        0.048
@<TRIPOS>BOND
     1    1    2 1  
     2    1    6 1  
     3    1   27 1  
     4    2    3 1  
     5    3    4 1  
     6    4    5 1  
     7    4    7 1  
     8    5    6 1  
     9    7    8 1  
    10    8    9 ar 
    11    8   13 ar 
    12    9   10 ar 
    13   10   11 ar 
    14   11   12 ar 
    15   11   14 1  
    16   12   13 ar 
    17   12   26 1  
    18   14   15 2  
    19   14   16 1  
    20   16   17 ar 
    21   16   21 ar 
    22   17   18 ar 
    23   17   24 1  
    24   18   19 ar 
    25   18   25 1  
    26   19   20 ar 
    27   20   21 ar 
    28   21   22 1  
    29   22   23 1  
    30   27   28 1  
    31   27   29 2  
    32   27   30 2  
    33    2   31 1  
    34    2   32 1  
    35    3   33 1  
    36    3   34 1  
    37    4   35 1  
    38    5   36 1  
    39    5   37 1  
    40    6   38 1  
    41    6   39 1  
    42    7   40 1  
    43   10   41 1  
    44   19   42 1  
    45   20   43 1  
    46   23   44 1  
    47   23   45 1  
    48   23   46 1  
    49   26   47 1  
    50   26   48 1  
    51   28   49 1  
    52   28   50 1  
    53   28   51 1  
@<TRIPOS>SUBSTRUCTURE
     1 SUB1        1 GROUP

