2fvd_ligand
  -I-interpret- 

 51 53  0  0  0  0  0  0  0  0999 V2000
    6.0060   26.4970    6.9800 N   0  0  0  0  0
    5.2280   26.2350    5.7370 C   0  0  0  0  0
    4.4250   27.4970    5.3560 C   0  0  0  0  0
    3.4740   27.9120    6.5080 C   0  0  0  0  0
    4.2630   28.0220    7.8590 C   0  0  0  0  0
    5.0840   26.7430    8.1290 C   0  0  0  0  0
    2.8530   29.1930    6.1450 N   0  0  0  0  0
    1.7690   29.5320    6.9000 C   0  0  0  0  0
    1.0690   28.5960    7.5970 N   0  0  0  0  0
    0.0490   28.9490    8.3170 C   0  0  0  0  0
   -0.4000   30.3250    8.4220 C   0  0  0  0  0
    0.3640   31.2870    7.6590 C   0  0  0  0  0
    1.4370   30.8560    6.9140 N   0  0  0  0  0
   -1.5430   30.6550    9.2600 C   0  0  0  0  0
   -1.9700   31.8210    9.3190 O   0  0  0  0  0
   -2.1970   29.6470   10.0640 C   0  0  0  0  0
   -3.5480   29.2590    9.7500 C   0  0  0  0  0
   -4.2120   28.2570   10.5240 C   0  0  0  0  0
   -3.5480   27.6250   11.6160 C   0  0  0  0  0
   -2.2140   27.9920   11.9500 C   0  0  0  0  0
   -1.5100   29.0040   11.1890 C   0  0  0  0  0
   -0.1880   29.4010   11.4900 O   0  0  0  0  0
    0.5550   28.3980   12.2270 C   0  0  0  0  0
   -4.2020   29.8250    8.7400 F   0  0  0  0  0
   -5.4500   27.9070   10.2290 F   0  0  0  0  0
    0.0830   32.6030    7.6390 N   0  0  0  0  0
    7.0630   25.2110    7.3100 S   0  0  0  0  0
    6.1790   23.6620    7.7100 C   0  0  0  0  0
    7.8710   25.5860    8.4490 O   0  0  0  0  0
    7.9110   25.0020    6.1680 O   0  0  0  0  0
    4.5416   25.4054    5.9064 H   0  0  0  0  0
    5.9121   25.9818    4.9271 H   0  0  0  0  0
    3.8296   27.2806    4.4690 H   0  0  0  0  0
    5.1220   28.3128    5.1640 H   0  0  0  0  0
    2.6993   27.1589    6.6517 H   0  0  0  0  0
    3.5478   28.1551    8.6707 H   0  0  0  0  0
    4.9468   28.8684    7.7956 H   0  0  0  0  0
    5.6649   26.8682    9.0428 H   0  0  0  0  0
    4.4100   25.8942    8.2444 H   0  0  0  0  0
    3.2042   29.7813    5.3894 H   0  0  0  0  0
   -0.4936   28.1795    8.8662 H   0  0  0  0  0
   -4.0630   26.8593   12.1962 H   0  0  0  0  0
   -1.7159   27.5056   12.7887 H   0  0  0  0  0
    0.0490   28.1931   13.1704 H   0  0  0  0  0
    0.6113   27.4831   11.6372 H   0  0  0  0  0
    1.5615   28.7663   12.4256 H   0  0  0  0  0
    0.6572   33.2388    7.0854 H   0  0  0  0  0
   -0.7042   32.9646    8.1774 H   0  0  0  0  0
    6.9037   22.8773    7.9271 H   0  0  0  0  0
    5.5434   23.8224    8.5809 H   0  0  0  0  0
    5.5646   23.3659    6.8598 H   0  0  0  0  0
  1  2  1  0  0  0
  1  6  1  0  0  0
  1 27  1  0  0  0
  2  3  1  0  0  0
  3  4  1  0  0  0
  4  5  1  0  0  0
  4  7  1  0  0  0
  5  6  1  0  0  0
  7  8  1  0  0  0
  8  9  4  0  0  0
  8 13  4  0  0  0
  9 10  4  0  0  0
 10 11  4  0  0  0
 11 12  4  0  0  0
 11 14  1  0  0  0
 12 13  4  0  0  0
 12 26  1  0  0  0
 14 15  2  0  0  0
 14 16  1  0  0  0
 16 17  4  0  0  0
 16 21  4  0  0  0
 17 18  4  0  0  0
 17 24  1  0  0  0
 18 19  4  0  0  0
 18 25  1  0  0  0
 19 20  4  0  0  0
 20 21  4  0  0  0
 21 22  1  0  0  0
 22 23  1  0  0  0
 27 28  1  0  0  0
 27 29  2  0  0  0
 27 30  2  0  0  0
  2 31  1  0  0  0
  2 32  1  0  0  0
  3 33  1  0  0  0
  3 34  1  0  0  0
  4 35  1  0  0  0
  5 36  1  0  0  0
  5 37  1  0  0  0
  6 38  1  0  0  0
  6 39  1  0  0  0
  7 40  1  0  0  0
 10 41  1  0  0  0
 19 42  1  0  0  0
 20 43  1  0  0  0
 23 44  1  0  0  0
 23 45  1  0  0  0
 23 46  1  0  0  0
 26 47  1  0  0  0
 26 48  1  0  0  0
 28 49  1  0  0  0
 28 50  1  0  0  0
 28 51  1  0  0  0
M  END
$$$$
