1gt1_ligand
  -I-interpret- 

 26 28  0  0  0  0  0  0  0  0999 V2000
    0.5250   -0.6460    5.5240 C   0  0  0  0  0
    1.2540   -0.2730    4.4290 C   0  0  0  0  0
   -0.8690   -0.3490    5.6230 C   0  0  0  0  0
    0.6170    0.4430    3.3280 C   0  0  0  0  0
   -1.5200    0.3530    4.5620 C   0  0  0  0  0
   -0.7990    0.7510    3.4240 C   0  0  0  0  0
   -1.0660   -2.5210    9.9950 C   0  0  0  0  0
    0.2980   -2.8340    9.9370 C   0  0  0  0  0
   -1.7090   -1.8260    8.9450 C   0  0  0  0  0
    1.0110   -2.4360    8.8030 C   0  0  0  0  0
   -1.0110   -1.4370    7.8350 C   0  0  0  0  0
    0.3700   -1.7330    7.7390 C   0  0  0  0  0
    1.2090   -1.3390    6.5470 C   0  0  0  0  0
   -1.7260   -0.6900    6.7180 C   0  0  0  0  0
   -2.9900    0.6930    4.6210 N   0  0  0  0  0
    2.3105   -0.5103    4.3783 H   0  0  0  0  0
    1.1893    0.7389    2.4562 H   0  0  0  0  0
   -1.2965    1.2848    2.6224 H   0  0  0  0  0
   -1.6414   -2.8182   10.8642 H   0  0  0  0  0
    0.7847   -3.3676   10.7454 H   0  0  0  0  0
   -2.7663   -1.5991    9.0205 H   0  0  0  0  0
    2.0681   -2.6649    8.7302 H   0  0  0  0  0
    2.2655   -1.5724    6.4809 H   0  0  0  0  0
   -2.7805   -0.4407    6.7486 H   0  0  0  0  0
   -3.5500    0.4168    5.4402 H   0  0  0  0  0
   -3.4327    1.2011    3.8421 H   0  0  0  0  0
  1  2  4  0  0  0
  3  1  4  0  0  0
  1 13  4  0  0  0
  2  4  4  0  0  0
  3  5  4  0  0  0
 14  3  4  0  0  0
  6  4  4  0  0  0
  5  6  4  0  0  0
  5 15  1  0  0  0
  7  8  4  0  0  0
  9  7  4  0  0  0
 10  8  4  0  0  0
 11  9  4  0  0  0
 12 10  4  0  0  0
 11 12  4  0  0  0
 11 14  4  0  0  0
 12 13  4  0  0  0
  2 16  1  0  0  0
  4 17  1  0  0  0
  6 18  1  0  0  0
  7 19  1  0  0  0
  8 20  1  0  0  0
  9 21  1  0  0  0
 10 22  1  0  0  0
 13 23  1  0  0  0
 14 24  1  0  0  0
 15 25  1  0  0  0
 15 26  1  0  0  0
M  END
$$$$
