1yid_ligand
  -I-interpret- 

 43 45  0  0  0  0  0  0  0  0999 V2000
   66.8050  -15.6970    1.5090 P   0  0  0  0  0
   66.2150  -14.7100    2.6450 O   0  5  0  0  0
   66.3690  -17.2300    1.9140 O   0  5  0  0  0
   66.5840  -15.3470    0.1130 O   0  0  0  0  0
   69.8560  -14.8130    1.3460 P   0  0  0  0  0
   69.5730  -13.5620    0.5700 O   0  0  0  0  0
   70.7840  -15.7150    0.5220 O   0  5  0  0  0
   68.4340  -15.8260    1.8640 O   0  0  0  0  0
   70.2980  -13.4380    3.9020 P   0  0  0  0  0
   70.0180  -12.1560    3.2240 O   0  0  0  0  0
   69.2190  -13.9360    4.8040 O   0  5  0  0  0
   70.7480  -14.4820    2.7110 O   0  0  0  0  0
   71.5980  -13.1150    4.8080 O   0  0  0  0  0
   72.1110  -14.1630    5.6420 C   0  0  0  0  0
   73.5930  -14.2340    5.8240 C   0  0  0  0  0
   74.2510  -15.1460    4.8760 O   0  0  0  0  0
   74.4690  -12.9740    5.7400 C   0  0  0  0  0
   75.5890  -13.1340    6.6340 O   0  0  0  0  0
   74.8460  -12.9530    4.2700 C   0  0  0  0  0
   75.9750  -12.1770    3.9200 O   0  0  0  0  0
   75.0780  -14.4000    3.9580 C   0  0  0  0  0
   74.8860  -14.8310    2.5330 N   0  0  0  0  0
   73.7680  -15.2780    1.8910 C   0  0  0  0  0
   73.9420  -15.5880    0.6210 N   0  0  0  0  0
   75.2810  -15.3130    0.3840 C   0  0  0  0  0
   76.0980  -15.4370   -0.7830 C   0  0  0  0  0
   75.6330  -15.8620   -1.9750 N   0  0  0  0  0
   77.4380  -15.0850   -0.6820 N   0  0  0  0  0
   77.9070  -14.6460    0.5070 C   0  0  0  0  0
   77.2350  -14.4940    1.6810 N   0  0  0  0  0
   75.9050  -14.8490    1.5540 C   0  0  0  0  0
   71.7858  -15.1197    5.2073 H   0  0  0  0  0
   71.6617  -14.0414    6.6386 H   0  0  0  0  0
   73.7267  -14.6392    6.8378 H   0  0  0  0  0
   73.9101  -12.0663    6.0117 H   0  0  0  0  0
   76.1395  -12.3608    6.5917 H   0  0  0  0  0
   73.9925  -12.5737    3.6889 H   0  0  0  0  0
   76.1194  -12.2348    2.9828 H   0  0  0  0  0
   76.1297  -14.6160    4.1971 H   0  0  0  0  0
   72.8045  -15.3717    2.3898 H   0  0  0  0  0
   76.2701  -15.9310   -2.7814 H   0  0  0  0  0
   74.6407  -16.1177   -2.0792 H   0  0  0  0  0
   78.9575  -14.3796    0.5287 H   0  0  0  0  0
  1  2  1  0  0  0
  1  3  1  0  0  0
  1  4  2  0  0  0
  8  1  1  0  0  0
  5  6  2  0  0  0
  5  7  1  0  0  0
  5  8  1  0  0  0
 12  5  1  0  0  0
  9 10  2  0  0  0
  9 11  1  0  0  0
  9 12  1  0  0  0
  9 13  1  0  0  0
 13 14  1  0  0  0
 14 15  1  0  0  0
 15 16  1  0  0  0
 15 17  1  0  0  0
 16 21  1  0  0  0
 17 18  1  0  0  0
 17 19  1  0  0  0
 19 20  1  0  0  0
 19 21  1  0  0  0
 21 22  1  0  0  0
 22 23  1  0  0  0
 22 31  1  0  0  0
 23 24  2  0  0  0
 24 25  1  0  0  0
 25 26  4  0  0  0
 25 31  4  0  0  0
 26 27  1  0  0  0
 26 28  4  0  0  0
 28 29  4  0  0  0
 29 30  4  0  0  0
 30 31  4  0  0  0
 14 32  1  0  0  0
 14 33  1  0  0  0
 15 34  1  0  0  0
 17 35  1  0  0  0
 18 36  1  0  0  0
 19 37  1  0  0  0
 20 38  1  0  0  0
 21 39  1  0  0  0
 23 40  1  0  0  0
 27 41  1  0  0  0
 27 42  1  0  0  0
 29 43  1  0  0  0
M  END
$$$$
