1g1d_ligand
  -I-interpret- 

 34 35  0  0  0  0  0  0  0  0999 V2000
   -2.7667    3.5237   14.2620 H   0  0  0  0  0
   -3.4738    1.5207   15.5729 H   0  0  0  0  0
   -3.7770    3.4750   14.6520 C   0  0  0  0  0
   -4.1640    2.3370   15.3930 C   0  0  0  0  0
   -5.5100    2.3030   15.9000 C   0  0  0  0  0
   -6.3580    3.3960   15.6260 C   0  0  0  0  0
   -5.9290    4.4990   14.8870 C   0  0  0  0  0
   -4.6510    4.5480   14.4000 C   0  0  0  0  0
   -4.1740    5.7490   13.6070 C   0  0  0  0  0
   -4.9430    6.6650   13.4080 O   0  0  0  0  0
   -2.8750    5.8030   13.1240 N   0  0  0  0  0
   -2.2400    6.8750   12.3690 C   0  0  0  0  0
   -6.0010    0.8300   16.8530 S   0  0  0  0  0
   -5.5180   -0.5040   16.1790 N   0  0  0  0  0
   -7.4810    1.0890   16.8920 O   0  0  0  0  0
   -5.4670    1.1300   18.1860 O   0  0  0  0  0
   -1.6360    7.9150   13.1600 C   0  0  0  0  0
   -1.9500    7.9620   14.5610 C   0  0  0  0  0
   -1.4150    8.9460   15.4290 C   0  0  0  0  0
   -0.5420    9.9090   14.8880 C   0  0  0  0  0
   -0.1920    9.9030   13.4860 C   0  0  0  0  0
   -0.7490    8.8880   12.6030 C   0  0  0  0  0
   -0.4360    8.8680   11.3000 F   0  0  0  0  0
   -7.3748    3.3787   16.0012 H   0  0  0  0  0
   -6.6107    5.3203   14.6979 H   0  0  0  0  0
   -2.3026    5.0064   13.3183 H   0  0  0  0  0
   -3.0049    7.3375   11.7279 H   0  0  0  0  0
   -1.4557    6.4284   11.7402 H   0  0  0  0  0
   -5.7274   -1.3909   16.6098 H   0  0  0  0  0
   -2.6220    7.2161   14.9699 H   0  0  0  0  0
   -1.6712    8.9570   16.4822 H   0  0  0  0  0
   -0.1239   10.6705   15.5364 H   0  0  0  0  0
    0.4843   10.6531   13.0922 H   0  0  0  0  0
   -5.0028   -0.4734   15.3225 H   0  0  0  0  0
  3  8  4  0  0  0
  3  4  4  0  0  0
  4  5  4  0  0  0
  5 13  1  0  0  0
  5  6  4  0  0  0
  6  7  4  0  0  0
  7  8  4  0  0  0
  8  9  1  0  0  0
  9 11  1  0  0  0
  9 10  2  0  0  0
 11 12  1  0  0  0
 12 17  1  0  0  0
 17 22  4  0  0  0
 17 18  4  0  0  0
 18 19  4  0  0  0
 19 20  4  0  0  0
 20 21  4  0  0  0
 21 22  4  0  0  0
 13 16  2  0  0  0
 13 15  2  0  0  0
 13 14  1  0  0  0
 22 23  1  0  0  0
  3  1  1  0  0  0
  4  2  1  0  0  0
  6 24  1  0  0  0
  7 25  1  0  0  0
 11 26  1  0  0  0
 12 27  1  0  0  0
 12 28  1  0  0  0
 14 29  1  0  0  0
 18 30  1  0  0  0
 19 31  1  0  0  0
 20 32  1  0  0  0
 21 33  1  0  0  0
 14 34  1  0  0  0
M  END
$$$$
