### 
### Created by X-TOOL on Tue Oct 25 00:13:02 2005
### 

@<TRIPOS>MOLECULE
1g1d_ligand
   34    35     1     0     0
SMALL
GAST_HUCK


@<TRIPOS>ATOM
      1 H31        -2.7667    3.5237   14.2620 H         1 SUB1        0.067
      2 H41        -3.4738    1.5207   15.5729 H         1 SUB1        0.065
      3 C01        -3.7770    3.4750   14.6520 C.ar      1 SUB1       -0.040
      4 C02        -4.1640    2.3370   15.3930 C.ar      1 SUB1       -0.030
      5 C03        -5.5100    2.3030   15.9000 C.ar      1 SUB1        0.112
      6 C04        -6.3580    3.3960   15.6260 C.ar      1 SUB1       -0.030
      7 C05        -5.9290    4.4990   14.8870 C.ar      1 SUB1       -0.040
      8 C06        -4.6510    4.5480   14.4000 C.ar      1 SUB1        0.050
      9 C07        -4.1740    5.7490   13.6070 C.2       1 SUB1        0.207
     10 O08        -4.9430    6.6650   13.4080 O.2       1 SUB1       -0.384
     11 N09        -2.8750    5.8030   13.1240 N.am      1 SUB1       -0.275
     12 C10        -2.2400    6.8750   12.3690 C.3       1 SUB1        0.065
     13 S11        -6.0010    0.8300   16.8530 S.o2      1 SUB1        0.068
     14 NP2        -5.5180   -0.5040   16.1790 N.am      1 SUB1       -0.261
     15 O13        -7.4810    1.0890   16.8920 O.2       1 SUB1       -0.150
     16 O14        -5.4670    1.1300   18.1860 O.2       1 SUB1       -0.150
     17 C15        -1.6360    7.9150   13.1600 C.ar      1 SUB1        0.013
     18 C16        -1.9500    7.9620   14.5610 C.ar      1 SUB1       -0.060
     19 C17        -1.4150    8.9460   15.4290 C.ar      1 SUB1       -0.072
     20 C18        -0.5420    9.9090   14.8880 C.ar      1 SUB1       -0.071
     21 C19        -0.1920    9.9030   13.4860 C.ar      1 SUB1       -0.035
     22 C20        -0.7490    8.8880   12.6030 C.ar      1 SUB1        0.135
     23 F21        -0.4360    8.8680   11.3000 F         1 SUB1       -0.189
     24 H61        -7.3748    3.3787   16.0012 H         1 SUB1        0.065
     25 H71        -6.6107    5.3203   14.6979 H         1 SUB1        0.067
     26 H111       -2.3026    5.0064   13.3183 H         1 SUB1        0.187
     27 H121       -3.0049    7.3375   11.7279 H         1 SUB1        0.068
     28 H122       -1.4557    6.4284   11.7402 H         1 SUB1        0.068
     29 H141       -5.7274   -1.3909   16.6098 H         1 SUB1        0.163
     30 H181       -2.6220    7.2161   14.9699 H         1 SUB1        0.055
     31 H191       -1.6712    8.9570   16.4822 H         1 SUB1        0.056
     32 H201       -0.1239   10.6705   15.5364 H         1 SUB1        0.055
     33 H211        0.4843   10.6531   13.0922 H         1 SUB1        0.058
     34 H142       -5.0028   -0.4734   15.3225 H         1 SUB1        0.163
@<TRIPOS>BOND
     1    3    8 ar 
     2    3    4 ar 
     3    4    5 ar 
     4    5   13 1  
     5    5    6 ar 
     6    6    7 ar 
     7    7    8 ar 
     8    8    9 1  
     9    9   11 am 
    10    9   10 2  
    11   11   12 1  
    12   12   17 1  
    13   17   22 ar 
    14   17   18 ar 
    15   18   19 ar 
    16   19   20 ar 
    17   20   21 ar 
    18   21   22 ar 
    19   13   16 2  
    20   13   15 2  
    21   13   14 1  
    22   22   23 1  
    23    3    1 1  
    24    4    2 1  
    25    6   24 1  
    26    7   25 1  
    27   11   26 1  
    28   12   27 1  
    29   12   28 1  
    30   14   29 1  
    31   18   30 1  
    32   19   31 1  
    33   20   32 1  
    34   21   33 1  
    35   14   34 1  
@<TRIPOS>SUBSTRUCTURE
     1 SUB1        1 GROUP

