### 
### Created by X-TOOL on Sun Jun  3 11:49:26 2007
### 

@<TRIPOS>MOLECULE
2a5b_ligand
   33    35     1     0     0
SMALL
GAST_HUCK


@<TRIPOS>ATOM
      1 O6         -0.3450   27.7960    0.0040 O.2       1 SUB1       -0.421
      2 C6          0.5210   28.3010   -0.7500 C.2       1 SUB1        0.217
      3 N1          1.3440   29.2150   -0.2300 N.am      1 SUB1       -0.190
      4 C2          2.2870   29.7720   -0.9910 C.2       1 SUB1        0.226
      5 N2          3.1170   30.6710   -0.5130 N.pl3     1 SUB1       -0.285
      6 N3          2.4710   29.4770   -2.2760 N.2       1 SUB1       -0.290
      7 C4          1.6670   28.5630   -2.8590 C.2       1 SUB1        0.114
      8 C5          0.6540   27.9370   -2.1040 C.2       1 SUB1        0.138
      9 N7          0.0080   27.0750   -2.9350 N.am      1 SUB1       -0.239
     10 C8          0.6350   27.2190   -4.1130 C.2       1 SUB1        0.301
     11 O20         0.2880   26.5660   -5.1640 O.2       1 SUB1       -0.407
     12 N9          1.6470   28.1050   -4.1100 N.am      1 SUB1       -0.180
     13 C1          2.5440   28.5020   -5.2430 C.3       1 SUB1        0.171
     14 O4          3.7330   29.2840   -4.9760 O.3       1 SUB1       -0.341
     15 C2          1.7440   29.3490   -6.2270 C.3       1 SUB1        0.030
     16 C3          2.7820   30.2110   -6.9160 C.3       1 SUB1        0.089
     17 O3          2.6750   29.8820   -8.3030 O.3       1 SUB1       -0.389
     18 C4          4.1000   29.7610   -6.2810 C.3       1 SUB1        0.111
     19 C5          5.1850   30.8180   -6.3070 C.3       1 SUB1        0.073
     20 O5          4.7560   31.9000   -7.1520 O.3       1 SUB1       -0.392
     21 H           1.2533   29.4817    0.7295 H         1 SUB1        0.249
     22 H           3.8358   31.0846   -1.1238 H         1 SUB1        0.188
     23 H           3.0490   30.9623    0.4726 H         1 SUB1        0.188
     24 H          -0.7592   26.4716   -2.7177 H         1 SUB1        0.214
     25 H           2.8653   27.5704   -5.7317 H         1 SUB1        0.095
     26 H           1.0105   29.9734   -5.6959 H         1 SUB1        0.034
     27 H           1.2230   28.7106   -6.9557 H         1 SUB1        0.034
     28 H           2.6154   31.2867   -6.7575 H         1 SUB1        0.062
     29 H           3.3050   30.3925   -8.7979 H         1 SUB1        0.210
     30 H           4.4879   28.9082   -6.8575 H         1 SUB1        0.065
     31 H           6.1145   30.3844   -6.7045 H         1 SUB1        0.058
     32 H           5.3615   31.1922   -5.2878 H         1 SUB1        0.058
     33 H           4.6030   31.5727   -8.0306 H         1 SUB1        0.209
@<TRIPOS>BOND
     1    1    2 2  
     2    2    3 am 
     3    2    8 1  
     4    3    4 1  
     5    4    5 1  
     6    4    6 2  
     7    6    7 1  
     8    7    8 2  
     9    7   12 1  
    10    8    9 am 
    11    9   10 am 
    12   10   11 2  
    13   10   12 am 
    14   12   13 1  
    15   13   14 1  
    16   13   15 1  
    17   14   18 1  
    18   15   16 1  
    19   16   17 1  
    20   16   18 1  
    21   18   19 1  
    22   19   20 1  
    23    3   21 1  
    24    5   22 1  
    25    5   23 1  
    26    9   24 1  
    27   13   25 1  
    28   15   26 1  
    29   15   27 1  
    30   16   28 1  
    31   17   29 1  
    32   18   30 1  
    33   19   31 1  
    34   19   32 1  
    35   20   33 1  
@<TRIPOS>SUBSTRUCTURE
     1 SUB1        1 GROUP

