### 
### Created by X-TOOL on Mon Oct 24 22:36:17 2005
### 

@<TRIPOS>MOLECULE
1qy5_ligand
   38    40     1     0     0
SMALL
GAST_HUCK


@<TRIPOS>ATOM
      1 C5'        18.3120  -14.5960   53.5470 C.2       1 SUB1        0.208
      2 O5'        17.1970  -15.1530   54.0070 O.2       1 SUB1       -0.394
      3 N5'        18.4590  -13.1900   53.5570 N.am      1 SUB1       -0.285
      4 C51        17.9140  -12.4510   52.4180 C.3       1 SUB1        0.028
      5 C52        16.6960  -11.7340   52.9010 C.3       1 SUB1       -0.045
      6 C4'        19.4450  -15.4460   53.0990 C.3       1 SUB1        0.179
      7 O4'        19.9620  -16.1300   54.1960 O.3       1 SUB1       -0.318
      8 C3'        19.1680  -16.4990   52.0630 C.3       1 SUB1        0.130
      9 O3'        19.2180  -15.9920   50.7250 O.3       1 SUB1       -0.384
     10 C2'        20.2000  -17.6100   52.4460 C.3       1 SUB1        0.141
     11 O2'        21.4730  -17.2920   51.7730 O.3       1 SUB1       -0.383
     12 C1'        20.2770  -17.5060   54.0400 C.3       1 SUB1        0.204
     13 N9         19.2790  -18.3900   54.6250 N.pl3     1 SUB1       -0.192
     14 C8         18.0330  -18.1090   55.1470 C.2       1 SUB1        0.112
     15 N7         17.4630  -19.1820   55.6220 N.2       1 SUB1       -0.296
     16 C5         18.3810  -20.2020   55.4220 C.ar      1 SUB1        0.105
     17 C6         18.3820  -21.5730   55.7340 C.ar      1 SUB1        0.130
     18 N6         17.3490  -22.2080   56.3200 N.pl3     1 SUB1       -0.315
     19 N1         19.5000  -22.2910   55.4270 N.ar      1 SUB1       -0.270
     20 C2         20.5340  -21.6780   54.8310 C.ar      1 SUB1        0.053
     21 N3         20.6450  -20.3820   54.4500 N.ar      1 SUB1       -0.271
     22 C4         19.5190  -19.7020   54.7930 C.ar      1 SUB1        0.161
     23 H31        18.9167  -12.7199   54.3116 H         1 SUB1        0.185
     24 H41        18.6479  -11.7194   52.0491 H         1 SUB1        0.052
     25 H42        17.6356  -13.1432   51.6097 H         1 SUB1        0.052
     26 H51        16.2599  -11.1662   52.0659 H         1 SUB1        0.025
     27 H52        15.9543  -12.4591   53.2670 H         1 SUB1        0.025
     28 H53        16.9666  -11.0354   53.7064 H         1 SUB1        0.025
     29 H61        20.2118  -14.7780   52.6798 H         1 SUB1        0.087
     30 H81        18.1589  -16.9111   52.2109 H         1 SUB1        0.067
     31 H91        20.0827  -15.6377   50.5539 H         1 SUB1        0.210
     32 H101       19.8575  -18.6135   52.1535 H         1 SUB1        0.068
     33 H111       21.3376  -17.2765   50.8328 H         1 SUB1        0.210
     34 H121       21.2682  -17.7582   54.4447 H         1 SUB1        0.100
     35 H141       17.5827  -17.1176   55.1607 H         1 SUB1        0.135
     36 H181       17.4121  -23.2159   56.5227 H         1 SUB1        0.182
     37 H182       16.4958  -21.6858   56.5655 H         1 SUB1        0.182
     38 H201       21.3960  -22.3028   54.6269 H         1 SUB1        0.100
@<TRIPOS>BOND
     1    1    2 2  
     2    1    3 am 
     3    1    6 1  
     4    3    4 1  
     5    4    5 1  
     6    6    7 1  
     7    6    8 1  
     8    7   12 1  
     9    8    9 1  
    10    8   10 1  
    11   10   11 1  
    12   10   12 1  
    13   12   13 1  
    14   13   14 1  
    15   13   22 1  
    16   14   15 2  
    17   15   16 1  
    18   16   17 ar 
    19   16   22 ar 
    20   17   18 1  
    21   17   19 ar 
    22   19   20 ar 
    23   20   21 ar 
    24   21   22 ar 
    25    3   23 1  
    26    4   24 1  
    27    4   25 1  
    28    5   26 1  
    29    5   27 1  
    30    5   28 1  
    31    6   29 1  
    32    8   30 1  
    33    9   31 1  
    34   10   32 1  
    35   11   33 1  
    36   12   34 1  
    37   14   35 1  
    38   18   36 1  
    39   18   37 1  
    40   20   38 1  
@<TRIPOS>SUBSTRUCTURE
     1 SUB1        1 GROUP

