1qy5_ligand
  -I-interpret- 

 38 40  0  0  0  0  0  0  0  0999 V2000
   18.3120  -14.5960   53.5470 C   0  0  0  0  0
   17.1970  -15.1530   54.0070 O   0  0  0  0  0
   18.4590  -13.1900   53.5570 N   0  0  0  0  0
   17.9140  -12.4510   52.4180 C   0  0  0  0  0
   16.6960  -11.7340   52.9010 C   0  0  0  0  0
   19.4450  -15.4460   53.0990 C   0  0  0  0  0
   19.9620  -16.1300   54.1960 O   0  0  0  0  0
   19.1680  -16.4990   52.0630 C   0  0  0  0  0
   19.2180  -15.9920   50.7250 O   0  0  0  0  0
   20.2000  -17.6100   52.4460 C   0  0  0  0  0
   21.4730  -17.2920   51.7730 O   0  0  0  0  0
   20.2770  -17.5060   54.0400 C   0  0  0  0  0
   19.2790  -18.3900   54.6250 N   0  0  0  0  0
   18.0330  -18.1090   55.1470 C   0  0  0  0  0
   17.4630  -19.1820   55.6220 N   0  0  0  0  0
   18.3810  -20.2020   55.4220 C   0  0  0  0  0
   18.3820  -21.5730   55.7340 C   0  0  0  0  0
   17.3490  -22.2080   56.3200 N   0  0  0  0  0
   19.5000  -22.2910   55.4270 N   0  0  0  0  0
   20.5340  -21.6780   54.8310 C   0  0  0  0  0
   20.6450  -20.3820   54.4500 N   0  0  0  0  0
   19.5190  -19.7020   54.7930 C   0  0  0  0  0
   18.9167  -12.7199   54.3116 H   0  0  0  0  0
   18.6479  -11.7194   52.0491 H   0  0  0  0  0
   17.6356  -13.1432   51.6097 H   0  0  0  0  0
   16.2599  -11.1662   52.0659 H   0  0  0  0  0
   15.9543  -12.4591   53.2670 H   0  0  0  0  0
   16.9666  -11.0354   53.7064 H   0  0  0  0  0
   20.2118  -14.7780   52.6798 H   0  0  0  0  0
   18.1589  -16.9111   52.2109 H   0  0  0  0  0
   20.0827  -15.6377   50.5539 H   0  0  0  0  0
   19.8575  -18.6135   52.1535 H   0  0  0  0  0
   21.3376  -17.2765   50.8328 H   0  0  0  0  0
   21.2682  -17.7582   54.4447 H   0  0  0  0  0
   17.5827  -17.1176   55.1607 H   0  0  0  0  0
   17.4121  -23.2159   56.5227 H   0  0  0  0  0
   16.4958  -21.6858   56.5655 H   0  0  0  0  0
   21.3960  -22.3028   54.6269 H   0  0  0  0  0
  1  2  2  0  0  0
  1  3  1  0  0  0
  1  6  1  0  0  0
  3  4  1  0  0  0
  4  5  1  0  0  0
  6  7  1  0  0  0
  6  8  1  0  0  0
  7 12  1  0  0  0
  8  9  1  0  0  0
  8 10  1  0  0  0
 10 11  1  0  0  0
 10 12  1  0  0  0
 12 13  1  0  0  0
 13 14  1  0  0  0
 13 22  1  0  0  0
 14 15  2  0  0  0
 15 16  1  0  0  0
 16 17  4  0  0  0
 16 22  4  0  0  0
 17 18  1  0  0  0
 17 19  4  0  0  0
 19 20  4  0  0  0
 20 21  4  0  0  0
 21 22  4  0  0  0
  3 23  1  0  0  0
  4 24  1  0  0  0
  4 25  1  0  0  0
  5 26  1  0  0  0
  5 27  1  0  0  0
  5 28  1  0  0  0
  6 29  1  0  0  0
  8 30  1  0  0  0
  9 31  1  0  0  0
 10 32  1  0  0  0
 11 33  1  0  0  0
 12 34  1  0  0  0
 14 35  1  0  0  0
 18 36  1  0  0  0
 18 37  1  0  0  0
 20 38  1  0  0  0
M  END
$$$$
