### 
### Created by X-TOOL on Tue Oct 25 02:34:23 2005
### 

@<TRIPOS>MOLECULE
1tsl_ligand
   44    48     1     0     0
SMALL
GAST_HUCK


@<TRIPOS>ATOM
      1 H81        19.2465   56.0830  -59.6791 H         1 SUB1        0.074
      2 H91        19.1489   58.4745  -60.2653 H         1 SUB1        0.065
      3 H101       20.6537   60.0967  -59.1633 H         1 SUB1        0.073
      4 H121       22.5551   60.5846  -57.5492 H         1 SUB1        0.084
      5 H131       24.3234   59.7683  -56.0352 H         1 SUB1        0.069
      6 C1         20.8960   54.8800  -57.8540 C.2       1 SUB1        0.246
      7 C2         20.8040   56.2990  -58.1210 C.ar      1 SUB1        0.072
      8 C3         19.8920   56.7860  -59.1650 C.ar      1 SUB1       -0.034
      9 C4         19.8430   58.1350  -59.5050 C.ar      1 SUB1       -0.047
     10 C5         20.6830   59.0530  -58.8720 C.ar      1 SUB1       -0.039
     11 C6         21.6010   58.6210  -57.8210 C.ar      1 SUB1        0.007
     12 C7         22.5810   59.5380  -57.2680 C.ar      1 SUB1       -0.029
     13 C8         23.5540   59.0870  -56.3800 C.ar      1 SUB1       -0.035
     14 C9         23.5480   57.7700  -55.9310 C.ar      1 SUB1       -0.051
     15 C10        22.5690   56.7770  -56.4450 C.ar      1 SUB1       -0.058
     16 C11        21.6370   57.2280  -57.4360 C.ar      1 SUB1        0.001
     17 C12        22.6700   55.3790  -56.0960 C.3       1 SUB1        0.071
     18 C13        24.0360   54.9750  -56.2250 C.ar      1 SUB1       -0.075
     19 C14        24.5350   54.5720  -57.4770 C.ar      1 SUB1       -0.050
     20 C15        25.8760   54.1710  -57.6070 C.ar      1 SUB1        0.087
     21 C16        26.7210   54.1720  -56.4870 C.ar      1 SUB1        0.124
     22 C17        26.2490   54.6070  -55.2480 C.ar      1 SUB1       -0.013
     23 C18        24.9240   54.9920  -55.1100 C.ar      1 SUB1       -0.064
     24 C19        22.2140   55.1210  -54.7420 C.ar      1 SUB1       -0.075
     25 C20        22.1740   56.1200  -53.7300 C.ar      1 SUB1       -0.050
     26 C21        21.7110   55.8070  -52.4360 C.ar      1 SUB1        0.087
     27 C22        21.3070   54.4980  -52.1310 C.ar      1 SUB1        0.124
     28 C23        21.3390   53.5000  -53.1190 C.ar      1 SUB1       -0.013
     29 C24        21.7810   53.8060  -54.4020 C.ar      1 SUB1       -0.064
     30 O1         21.7940   54.4490  -56.9110 O.3       1 SUB1       -0.353
     31 O2         20.2050   54.0660  -58.4680 O.2       1 SUB1       -0.360
     32 O3         28.0440   53.6830  -56.5930 O.3       1 SUB1       -0.317
     33 O4         20.8650   54.1770  -50.8130 O.3       1 SUB1       -0.317
     34 CL1        26.4820   53.6830  -59.1410 Cl        1 SUB1       -0.072
     35 CL2        21.5860   57.0360  -51.2420 Cl        1 SUB1       -0.072
     36 H141       24.2748   57.4609  -55.1885 H         1 SUB1        0.083
     37 H191       23.8838   54.5707  -58.3436 H         1 SUB1        0.072
     38 H221       26.9169   54.6439  -54.3950 H         1 SUB1        0.061
     39 H231       24.5583   55.3104  -54.1405 H         1 SUB1        0.072
     40 H251       22.5017   57.1284  -53.9555 H         1 SUB1        0.072
     41 H281       21.0194   52.4917  -52.8817 H         1 SUB1        0.061
     42 H291       21.7965   53.0293  -55.1581 H         1 SUB1        0.072
     43 H321       28.4756   53.7551  -55.7497 H         1 SUB1        0.257
     44 H331       20.6296   53.2574  -50.7743 H         1 SUB1        0.257
@<TRIPOS>BOND
     1   26   35 1  
     2   20   34 1  
     3    8    1 1  
     4    9    2 1  
     5    6   31 2  
     6   30    6 1  
     7    6    7 1  
     8   16    7 ar 
     9    7    8 ar 
    10    8    9 ar 
    11   10    9 ar 
    12   11   10 ar 
    13   16   11 ar 
    14   11   12 ar 
    15   13   12 ar 
    16   14   13 ar 
    17   15   14 ar 
    18   17   15 1  
    19   15   16 ar 
    20   17   30 1  
    21   24   17 1  
    22   17   18 1  
    23   18   23 ar 
    24   18   19 ar 
    25   19   20 ar 
    26   20   21 ar 
    27   21   32 1  
    28   22   21 ar 
    29   23   22 ar 
    30   24   29 ar 
    31   25   24 ar 
    32   25   26 ar 
    33   26   27 ar 
    34   27   33 1  
    35   27   28 ar 
    36   28   29 ar 
    37   10    3 1  
    38   12    4 1  
    39   13    5 1  
    40   14   36 1  
    41   19   37 1  
    42   22   38 1  
    43   23   39 1  
    44   25   40 1  
    45   28   41 1  
    46   29   42 1  
    47   32   43 1  
    48   33   44 1  
@<TRIPOS>SUBSTRUCTURE
     1 SUB1        1 GROUP

