1tsl_ligand
  -I-interpret- 

 44 48  0  0  0  0  0  0  0  0999 V2000
   19.2465   56.0830  -59.6791 H   0  0  0  0  0
   19.1489   58.4745  -60.2653 H   0  0  0  0  0
   20.6537   60.0967  -59.1633 H   0  0  0  0  0
   22.5551   60.5846  -57.5492 H   0  0  0  0  0
   24.3234   59.7683  -56.0352 H   0  0  0  0  0
   20.8960   54.8800  -57.8540 C   0  0  0  0  0
   20.8040   56.2990  -58.1210 C   0  0  0  0  0
   19.8920   56.7860  -59.1650 C   0  0  0  0  0
   19.8430   58.1350  -59.5050 C   0  0  0  0  0
   20.6830   59.0530  -58.8720 C   0  0  0  0  0
   21.6010   58.6210  -57.8210 C   0  0  0  0  0
   22.5810   59.5380  -57.2680 C   0  0  0  0  0
   23.5540   59.0870  -56.3800 C   0  0  0  0  0
   23.5480   57.7700  -55.9310 C   0  0  0  0  0
   22.5690   56.7770  -56.4450 C   0  0  0  0  0
   21.6370   57.2280  -57.4360 C   0  0  0  0  0
   22.6700   55.3790  -56.0960 C   0  0  0  0  0
   24.0360   54.9750  -56.2250 C   0  0  0  0  0
   24.5350   54.5720  -57.4770 C   0  0  0  0  0
   25.8760   54.1710  -57.6070 C   0  0  0  0  0
   26.7210   54.1720  -56.4870 C   0  0  0  0  0
   26.2490   54.6070  -55.2480 C   0  0  0  0  0
   24.9240   54.9920  -55.1100 C   0  0  0  0  0
   22.2140   55.1210  -54.7420 C   0  0  0  0  0
   22.1740   56.1200  -53.7300 C   0  0  0  0  0
   21.7110   55.8070  -52.4360 C   0  0  0  0  0
   21.3070   54.4980  -52.1310 C   0  0  0  0  0
   21.3390   53.5000  -53.1190 C   0  0  0  0  0
   21.7810   53.8060  -54.4020 C   0  0  0  0  0
   21.7940   54.4490  -56.9110 O   0  0  0  0  0
   20.2050   54.0660  -58.4680 O   0  0  0  0  0
   28.0440   53.6830  -56.5930 O   0  0  0  0  0
   20.8650   54.1770  -50.8130 O   0  0  0  0  0
   26.4820   53.6830  -59.1410 Cl  0  0  0  0  0
   21.5860   57.0360  -51.2420 Cl  0  0  0  0  0
   24.2748   57.4609  -55.1885 H   0  0  0  0  0
   23.8838   54.5707  -58.3436 H   0  0  0  0  0
   26.9169   54.6439  -54.3950 H   0  0  0  0  0
   24.5583   55.3104  -54.1405 H   0  0  0  0  0
   22.5017   57.1284  -53.9555 H   0  0  0  0  0
   21.0194   52.4917  -52.8817 H   0  0  0  0  0
   21.7965   53.0293  -55.1581 H   0  0  0  0  0
   28.4756   53.7551  -55.7497 H   0  0  0  0  0
   20.6296   53.2574  -50.7743 H   0  0  0  0  0
 26 35  1  0  0  0
 20 34  1  0  0  0
  8  1  1  0  0  0
  9  2  1  0  0  0
  6 31  2  0  0  0
 30  6  1  0  0  0
  6  7  1  0  0  0
 16  7  4  0  0  0
  7  8  4  0  0  0
  8  9  4  0  0  0
 10  9  4  0  0  0
 11 10  4  0  0  0
 16 11  4  0  0  0
 11 12  4  0  0  0
 13 12  4  0  0  0
 14 13  4  0  0  0
 15 14  4  0  0  0
 17 15  1  0  0  0
 15 16  4  0  0  0
 17 30  1  0  0  0
 24 17  1  0  0  0
 17 18  1  0  0  0
 18 23  4  0  0  0
 18 19  4  0  0  0
 19 20  4  0  0  0
 20 21  4  0  0  0
 21 32  1  0  0  0
 22 21  4  0  0  0
 23 22  4  0  0  0
 24 29  4  0  0  0
 25 24  4  0  0  0
 25 26  4  0  0  0
 26 27  4  0  0  0
 27 33  1  0  0  0
 27 28  4  0  0  0
 28 29  4  0  0  0
 10  3  1  0  0  0
 12  4  1  0  0  0
 13  5  1  0  0  0
 14 36  1  0  0  0
 19 37  1  0  0  0
 22 38  1  0  0  0
 23 39  1  0  0  0
 25 40  1  0  0  0
 28 41  1  0  0  0
 29 42  1  0  0  0
 32 43  1  0  0  0
 33 44  1  0  0  0
M  END
$$$$
