### 
### Created by X-TOOL on Sun Jun  3 11:23:00 2007
### 

@<TRIPOS>MOLECULE
2f1g_ligand
   64    67     1     0     0
SMALL
GAST_HUCK


@<TRIPOS>ATOM
      1 O11        21.0960   37.4360   12.1570 O.2       1 SUB1       -0.394
      2 C10        22.0980   37.0540   11.5640 C.2       1 SUB1        0.203
      3 C12        22.6150   35.6820   11.9020 C.3       1 SUB1        0.135
      4 N20        22.9560   35.7680   13.3010 N.pl3     1 SUB1       -0.243
      5 C21        24.1070   36.2820   13.7690 C.2       1 SUB1        0.279
      6 O29        24.3310   36.3550   15.1080 O.3       1 SUB1       -0.198
      7 C28        25.6050   36.9350   15.1510 C.ar      1 SUB1        0.139
      8 C27        26.3120   37.2360   16.3020 C.ar      1 SUB1       -0.033
      9 C26        27.5700   37.7950   16.1520 C.ar      1 SUB1       -0.076
     10 C25        28.0790   38.0370   14.8700 C.ar      1 SUB1       -0.079
     11 C24        27.3400   37.7460   13.7230 C.ar      1 SUB1       -0.066
     12 C23        26.0840   37.1790   13.8700 C.ar      1 SUB1        0.027
     13 N22        25.1170   36.7610   12.9990 N.2       1 SUB1       -0.297
     14 C13        21.5600   34.6070   11.6520 C.3       1 SUB1       -0.009
     15 C14        21.5170   33.4700   12.6840 C.3       1 SUB1       -0.037
     16 C19        22.3590   32.2880   12.1980 C.3       1 SUB1       -0.050
     17 C18        22.2380   31.1170   13.1660 C.3       1 SUB1       -0.053
     18 C17        20.7900   30.6870   13.3780 C.3       1 SUB1       -0.053
     19 C16        19.8150   31.6000   12.6460 C.3       1 SUB1       -0.053
     20 C15        20.0740   33.0650   12.9650 C.3       1 SUB1       -0.050
     21 N9         22.7950   37.7970   10.6800 N.am      1 SUB1       -0.283
     22 C8         22.4270   39.1580   10.2960 C.3       1 SUB1        0.050
     23 C7         23.1540   39.6840    9.0400 C.3       1 SUB1        0.042
     24 N          22.7490   38.9340    7.8580 N.pl3     1 SUB1       -0.327
     25 C5         21.4330   38.8260    7.5470 C.ar      1 SUB1        0.027
     26 C4         20.9730   37.7060    6.8350 C.ar      1 SUB1       -0.053
     27 C3         19.6010   37.5560    6.6040 C.ar      1 SUB1       -0.044
     28 C30        20.5110   39.7580    8.0520 C.ar      1 SUB1       -0.053
     29 C31        19.1560   39.5900    7.8390 C.ar      1 SUB1       -0.044
     30 C2         18.7180   38.4990    7.1320 C.ar      1 SUB1        0.077
     31 O          17.3950   38.4320    6.9340 O.3       1 SUB1       -0.330
     32 C          16.9540   39.4070    6.0360 C.3       1 SUB1        0.056
     33 H          23.4654   35.3971   11.2825 H         1 SUB1        0.081
     34 H          22.2802   35.4161   13.9791 H         1 SUB1        0.195
     35 H          25.8943   37.0404   17.2896 H         1 SUB1        0.055
     36 H          28.1635   38.0464   17.0310 H         1 SUB1        0.052
     37 H          29.0768   38.4631   14.7658 H         1 SUB1        0.052
     38 H          27.7418   37.9600   12.7326 H         1 SUB1        0.052
     39 H          21.8056   34.1479   10.6944 H         1 SUB1        0.032
     40 H          20.5918   35.1055   11.6988 H         1 SUB1        0.032
     41 H          21.9466   33.8175   13.6236 H         1 SUB1        0.030
     42 H          23.4032   32.5953   12.1408 H         1 SUB1        0.027
     43 H          22.0010   31.9763   11.2168 H         1 SUB1        0.027
     44 H          22.6414   31.4314   14.1286 H         1 SUB1        0.026
     45 H          22.7829   30.2724   12.7442 H         1 SUB1        0.026
     46 H          20.5708   30.7369   14.4446 H         1 SUB1        0.026
     47 H          20.6722   29.6765   12.9868 H         1 SUB1        0.026
     48 H          18.8032   31.3511   12.9660 H         1 SUB1        0.026
     49 H          19.9436   31.4527   11.5737 H         1 SUB1        0.026
     50 H          19.4232   33.6696   12.3333 H         1 SUB1        0.027
     51 H          19.8789   33.2204   14.0261 H         1 SUB1        0.027
     52 H          23.6261   37.3855   10.2555 H         1 SUB1        0.185
     53 H          22.7052   39.8104   11.1237 H         1 SUB1        0.054
     54 H          21.3610   39.1494   10.0688 H         1 SUB1        0.054
     55 H          24.2286   39.5672    9.1802 H         1 SUB1        0.053
     56 H          22.8957   40.7332    8.8970 H         1 SUB1        0.053
     57 H          23.4526   38.4918    7.2666 H         1 SUB1        0.172
     58 H          21.6779   36.9609    6.4660 H         1 SUB1        0.049
     59 H          19.2274   36.7148    6.0201 H         1 SUB1        0.051
     60 H          20.8671   40.6201    8.6160 H         1 SUB1        0.049
     61 H          18.4429   40.3165    8.2285 H         1 SUB1        0.051
     62 H          17.1919   40.3954    6.4291 H         1 SUB1        0.057
     63 H          17.4515   39.2669    5.0763 H         1 SUB1        0.057
     64 H          15.8757   39.3168    5.9043 H         1 SUB1        0.057
@<TRIPOS>BOND
     1    1    2 2  
     2    2    3 1  
     3    2   21 am 
     4    3    4 1  
     5    3   14 1  
     6    4    5 1  
     7    5    6 1  
     8    5   13 2  
     9    6    7 1  
    10    7    8 ar 
    11    7   12 ar 
    12    8    9 ar 
    13    9   10 ar 
    14   10   11 ar 
    15   11   12 ar 
    16   12   13 1  
    17   14   15 1  
    18   15   16 1  
    19   15   20 1  
    20   16   17 1  
    21   17   18 1  
    22   18   19 1  
    23   19   20 1  
    24   21   22 1  
    25   22   23 1  
    26   23   24 1  
    27   24   25 1  
    28   25   26 ar 
    29   25   28 ar 
    30   26   27 ar 
    31   27   30 ar 
    32   28   29 ar 
    33   29   30 ar 
    34   30   31 1  
    35   31   32 1  
    36    3   33 1  
    37    4   34 1  
    38    8   35 1  
    39    9   36 1  
    40   10   37 1  
    41   11   38 1  
    42   14   39 1  
    43   14   40 1  
    44   15   41 1  
    45   16   42 1  
    46   16   43 1  
    47   17   44 1  
    48   17   45 1  
    49   18   46 1  
    50   18   47 1  
    51   19   48 1  
    52   19   49 1  
    53   20   50 1  
    54   20   51 1  
    55   21   52 1  
    56   22   53 1  
    57   22   54 1  
    58   23   55 1  
    59   23   56 1  
    60   24   57 1  
    61   26   58 1  
    62   27   59 1  
    63   28   60 1  
    64   29   61 1  
    65   32   62 1  
    66   32   63 1  
    67   32   64 1  
@<TRIPOS>SUBSTRUCTURE
     1 SUB1        1 GROUP

