2f1g_ligand
  -I-interpret- 

 64 67  0  0  0  0  0  0  0  0999 V2000
   21.0960   37.4360   12.1570 O   0  0  0  0  0
   22.0980   37.0540   11.5640 C   0  0  0  0  0
   22.6150   35.6820   11.9020 C   0  0  0  0  0
   22.9560   35.7680   13.3010 N   0  0  0  0  0
   24.1070   36.2820   13.7690 C   0  0  0  0  0
   24.3310   36.3550   15.1080 O   0  0  0  0  0
   25.6050   36.9350   15.1510 C   0  0  0  0  0
   26.3120   37.2360   16.3020 C   0  0  0  0  0
   27.5700   37.7950   16.1520 C   0  0  0  0  0
   28.0790   38.0370   14.8700 C   0  0  0  0  0
   27.3400   37.7460   13.7230 C   0  0  0  0  0
   26.0840   37.1790   13.8700 C   0  0  0  0  0
   25.1170   36.7610   12.9990 N   0  0  0  0  0
   21.5600   34.6070   11.6520 C   0  0  0  0  0
   21.5170   33.4700   12.6840 C   0  0  0  0  0
   22.3590   32.2880   12.1980 C   0  0  0  0  0
   22.2380   31.1170   13.1660 C   0  0  0  0  0
   20.7900   30.6870   13.3780 C   0  0  0  0  0
   19.8150   31.6000   12.6460 C   0  0  0  0  0
   20.0740   33.0650   12.9650 C   0  0  0  0  0
   22.7950   37.7970   10.6800 N   0  0  0  0  0
   22.4270   39.1580   10.2960 C   0  0  0  0  0
   23.1540   39.6840    9.0400 C   0  0  0  0  0
   22.7490   38.9340    7.8580 N   0  0  0  0  0
   21.4330   38.8260    7.5470 C   0  0  0  0  0
   20.9730   37.7060    6.8350 C   0  0  0  0  0
   19.6010   37.5560    6.6040 C   0  0  0  0  0
   20.5110   39.7580    8.0520 C   0  0  0  0  0
   19.1560   39.5900    7.8390 C   0  0  0  0  0
   18.7180   38.4990    7.1320 C   0  0  0  0  0
   17.3950   38.4320    6.9340 O   0  0  0  0  0
   16.9540   39.4070    6.0360 C   0  0  0  0  0
   23.4654   35.3971   11.2825 H   0  0  0  0  0
   22.2802   35.4161   13.9791 H   0  0  0  0  0
   25.8943   37.0404   17.2896 H   0  0  0  0  0
   28.1635   38.0464   17.0310 H   0  0  0  0  0
   29.0768   38.4631   14.7658 H   0  0  0  0  0
   27.7418   37.9600   12.7326 H   0  0  0  0  0
   21.8056   34.1479   10.6944 H   0  0  0  0  0
   20.5918   35.1055   11.6988 H   0  0  0  0  0
   21.9466   33.8175   13.6236 H   0  0  0  0  0
   23.4032   32.5953   12.1408 H   0  0  0  0  0
   22.0010   31.9763   11.2168 H   0  0  0  0  0
   22.6414   31.4314   14.1286 H   0  0  0  0  0
   22.7829   30.2724   12.7442 H   0  0  0  0  0
   20.5708   30.7369   14.4446 H   0  0  0  0  0
   20.6722   29.6765   12.9868 H   0  0  0  0  0
   18.8032   31.3511   12.9660 H   0  0  0  0  0
   19.9436   31.4527   11.5737 H   0  0  0  0  0
   19.4232   33.6696   12.3333 H   0  0  0  0  0
   19.8789   33.2204   14.0261 H   0  0  0  0  0
   23.6261   37.3855   10.2555 H   0  0  0  0  0
   22.7052   39.8104   11.1237 H   0  0  0  0  0
   21.3610   39.1494   10.0688 H   0  0  0  0  0
   24.2286   39.5672    9.1802 H   0  0  0  0  0
   22.8957   40.7332    8.8970 H   0  0  0  0  0
   23.4526   38.4918    7.2666 H   0  0  0  0  0
   21.6779   36.9609    6.4660 H   0  0  0  0  0
   19.2274   36.7148    6.0201 H   0  0  0  0  0
   20.8671   40.6201    8.6160 H   0  0  0  0  0
   18.4429   40.3165    8.2285 H   0  0  0  0  0
   17.1919   40.3954    6.4291 H   0  0  0  0  0
   17.4515   39.2669    5.0763 H   0  0  0  0  0
   15.8757   39.3168    5.9043 H   0  0  0  0  0
  1  2  2  0  0  0
  2  3  1  0  0  0
  2 21  1  0  0  0
  3  4  1  0  0  0
  3 14  1  0  0  0
  4  5  1  0  0  0
  5  6  1  0  0  0
  5 13  2  0  0  0
  6  7  1  0  0  0
  7  8  4  0  0  0
  7 12  4  0  0  0
  8  9  4  0  0  0
  9 10  4  0  0  0
 10 11  4  0  0  0
 11 12  4  0  0  0
 12 13  1  0  0  0
 14 15  1  0  0  0
 15 16  1  0  0  0
 15 20  1  0  0  0
 16 17  1  0  0  0
 17 18  1  0  0  0
 18 19  1  0  0  0
 19 20  1  0  0  0
 21 22  1  0  0  0
 22 23  1  0  0  0
 23 24  1  0  0  0
 24 25  1  0  0  0
 25 26  4  0  0  0
 25 28  4  0  0  0
 26 27  4  0  0  0
 27 30  4  0  0  0
 28 29  4  0  0  0
 29 30  4  0  0  0
 30 31  1  0  0  0
 31 32  1  0  0  0
  3 33  1  0  0  0
  4 34  1  0  0  0
  8 35  1  0  0  0
  9 36  1  0  0  0
 10 37  1  0  0  0
 11 38  1  0  0  0
 14 39  1  0  0  0
 14 40  1  0  0  0
 15 41  1  0  0  0
 16 42  1  0  0  0
 16 43  1  0  0  0
 17 44  1  0  0  0
 17 45  1  0  0  0
 18 46  1  0  0  0
 18 47  1  0  0  0
 19 48  1  0  0  0
 19 49  1  0  0  0
 20 50  1  0  0  0
 20 51  1  0  0  0
 21 52  1  0  0  0
 22 53  1  0  0  0
 22 54  1  0  0  0
 23 55  1  0  0  0
 23 56  1  0  0  0
 24 57  1  0  0  0
 26 58  1  0  0  0
 27 59  1  0  0  0
 28 60  1  0  0  0
 29 61  1  0  0  0
 32 62  1  0  0  0
 32 63  1  0  0  0
 32 64  1  0  0  0
M  END
$$$$
