1ykp_ligand
  -I-interpret- 

 16 16  0  0  0  0  0  0  0  0999 V2000
   24.7270   12.3130   35.9490 C   0  0  0  0  0
   24.9330   11.2080   35.1700 C   0  0  0  0  0
   24.4120    9.9820   35.5680 C   0  0  0  0  0
   24.5840    8.8630   34.7860 O   0  0  0  0  0
   23.7010    9.8770   36.7550 C   0  0  0  0  0
   23.1680    8.6460   37.1340 O   0  0  0  0  0
   23.5010   11.0060   37.5450 C   0  0  0  0  0
   24.0140   12.2150   37.1460 C   0  0  0  0  0
   25.2720   13.5910   35.5410 C   0  0  0  0  0
   25.9050   13.6700   34.4770 O   0  0  0  0  0
   25.1140   14.6160   36.2490 O   0  5  0  0  0
   25.5017   11.2879   34.2436 H   0  0  0  0  0
   24.1633    8.1108   35.2088 H   0  0  0  0  0
   22.7094    8.7415   37.9720 H   0  0  0  0  0
   22.9395   10.9301   38.4762 H   0  0  0  0  0
   23.8647   13.1001   37.7644 H   0  0  0  0  0
  1  2  4  0  0  0
  1  8  4  0  0  0
  1  9  1  0  0  0
  2  3  4  0  0  0
  3  4  1  0  0  0
  3  5  4  0  0  0
  5  6  1  0  0  0
  5  7  4  0  0  0
  7  8  4  0  0  0
  9 10  2  0  0  0
  9 11  1  0  0  0
  2 12  1  0  0  0
  4 13  1  0  0  0
  6 14  1  0  0  0
  7 15  1  0  0  0
  8 16  1  0  0  0
M  END
$$$$
