### 
### Created by X-TOOL on Sun Jun  3 11:48:28 2007
### 

@<TRIPOS>MOLECULE
1ykp_ligand
   16    16     1     0     0
SMALL
GAST_HUCK


@<TRIPOS>ATOM
      1 C1         24.7270   12.3130   35.9490 C.ar      1 SUB1        0.065
      2 C2         24.9330   11.2080   35.1700 C.ar      1 SUB1        0.060
      3 C3         24.4120    9.9820   35.5680 C.ar      1 SUB1        0.249
      4 O3         24.5840    8.8630   34.7860 O.3       1 SUB1       -0.258
      5 C4         23.7010    9.8770   36.7550 C.ar      1 SUB1        0.248
      6 O4         23.1680    8.6460   37.1340 O.3       1 SUB1       -0.257
      7 C5         23.5010   11.0060   37.5450 C.ar      1 SUB1        0.049
      8 C6         24.0140   12.2150   37.1460 C.ar      1 SUB1        0.006
      9 C          25.2720   13.5910   35.5410 C.2       1 SUB1        0.092
     10 O1         25.9050   13.6700   34.4770 O.2       1 SUB1       -0.551
     11 O2         25.1140   14.6160   36.2490 O.2       1 SUB1       -0.551
     12 H          25.5017   11.2879   34.2436 H         1 SUB1        0.078
     13 H          24.1633    8.1108   35.2088 H         1 SUB1        0.297
     14 H          22.7094    8.7415   37.9720 H         1 SUB1        0.298
     15 H          22.9395   10.9301   38.4762 H         1 SUB1        0.075
     16 H          23.8647   13.1001   37.7644 H         1 SUB1        0.100
@<TRIPOS>BOND
     1    1    2 ar 
     2    1    8 ar 
     3    1    9 1  
     4    2    3 ar 
     5    3    4 1  
     6    3    5 ar 
     7    5    6 1  
     8    5    7 ar 
     9    7    8 ar 
    10    9   10 2  
    11    9   11 2  
    12    2   12 1  
    13    4   13 1  
    14    6   14 1  
    15    7   15 1  
    16    8   16 1  
@<TRIPOS>SUBSTRUCTURE
     1 SUB1        1 GROUP

