2cji_ligand
  -I-interpret- 

 55 58  0  0  0  0  0  0  0  0999 V2000
   13.8980    7.2560   26.6060 Cl  0  0  0  0  0
   12.2280    7.4970   26.1660 C   0  0  0  0  0
   11.1920    7.0870   27.0520 C   0  0  0  0  0
    9.8150    7.2600   26.7010 C   0  0  0  0  0
    9.5110    7.8730   25.4700 C   0  0  0  0  0
    8.1600    8.0730   25.1010 C   0  0  0  0  0
   10.5710    8.3160   24.5510 C   0  0  0  0  0
   11.9260    8.1130   24.9280 C   0  0  0  0  0
   10.2500    8.9110   23.2990 C   0  0  0  0  0
    8.8830    9.0720   22.9520 C   0  0  0  0  0
    7.8540    8.6690   23.8560 C   0  0  0  0  0
    6.1200    8.8440   23.4240 S   0  0  0  0  0
    5.8710   10.1120   22.7990 O   0  0  0  0  0
    5.3500    8.4400   24.5680 O   0  0  0  0  0
    5.8990    7.8290   22.1850 N   0  0  0  0  0
    6.0230    6.3610   22.2380 C   0  0  0  0  0
    4.7150    5.6680   21.8630 C   0  0  0  0  0
    5.1110    4.3350   21.2130 C   0  0  0  0  0
    7.0530    5.6740   21.3390 C   0  0  0  0  0
    8.1930    6.0680   21.1110 O   0  0  0  0  0
    6.5120    4.5220   20.8550 N   0  0  0  0  0
    7.3160    3.5150   20.1230 C   0  0  0  0  0
    7.0920    2.0900   20.6760 C   0  0  0  0  0
    7.1730    3.5580   18.6090 C   0  0  0  0  0
    6.1410    3.9890   18.1180 O   0  0  0  0  0
    8.2350    3.1650   17.8510 N   0  0  0  0  0
    9.6120    3.0050   18.3380 C   0  0  0  0  0
   10.1330    1.6310   17.9500 C   0  0  0  0  0
   10.1950    1.6410   16.5400 O   0  0  0  0  0
    8.9200    1.7770   15.8930 C   0  0  0  0  0
    8.0480    2.9290   16.4170 C   0  0  0  0  0
   11.4505    6.6356   28.0099 H   0  0  0  0  0
    9.0217    6.9257   27.3696 H   0  0  0  0  0
    7.3582    7.7688   25.7738 H   0  0  0  0  0
   12.7309    8.4309   24.2653 H   0  0  0  0  0
   11.0380    9.2367   22.6199 H   0  0  0  0  0
    8.6170    9.5065   21.9884 H   0  0  0  0  0
    5.6515    8.2416   21.2856 H   0  0  0  0  0
    6.3420    6.2501   23.2744 H   0  0  0  0  0
    4.1267    6.2802   21.1795 H   0  0  0  0  0
    4.0884    5.5077   22.7404 H   0  0  0  0  0
    4.4913    4.0956   20.3488 H   0  0  0  0  0
    4.9645    3.4880   21.8832 H   0  0  0  0  0
    8.3510    3.7993   20.3128 H   0  0  0  0  0
    7.3795    2.0602   21.7270 H   0  0  0  0  0
    6.0392    1.8251   20.5783 H   0  0  0  0  0
    7.6998    1.3829   20.1115 H   0  0  0  0  0
    9.6264    3.1048   19.4233 H   0  0  0  0  0
   10.2454    3.7719   17.8922 H   0  0  0  0  0
    9.4830    0.8369   18.3175 H   0  0  0  0  0
   11.1087    1.4320   18.3932 H   0  0  0  0  0
    8.3706    0.8546   16.0813 H   0  0  0  0  0
    9.1201    1.9856   14.8420 H   0  0  0  0  0
    8.3346    3.8368   15.8861 H   0  0  0  0  0
    7.0039    2.6627   16.2528 H   0  0  0  0  0
  1  2  1  0  0  0
  2  3  4  0  0  0
  2  8  4  0  0  0
  3  4  4  0  0  0
  4  5  4  0  0  0
  5  6  4  0  0  0
  5  7  4  0  0  0
  6 11  4  0  0  0
  7  8  4  0  0  0
  7  9  4  0  0  0
  9 10  4  0  0  0
 10 11  4  0  0  0
 11 12  1  0  0  0
 12 13  2  0  0  0
 12 14  2  0  0  0
 12 15  1  0  0  0
 15 16  1  0  0  0
 16 17  1  0  0  0
 16 19  1  0  0  0
 17 18  1  0  0  0
 18 21  1  0  0  0
 19 20  2  0  0  0
 19 21  1  0  0  0
 21 22  1  0  0  0
 22 23  1  0  0  0
 22 24  1  0  0  0
 24 25  2  0  0  0
 24 26  1  0  0  0
 26 27  1  0  0  0
 26 31  1  0  0  0
 27 28  1  0  0  0
 28 29  1  0  0  0
 29 30  1  0  0  0
 30 31  1  0  0  0
  3 32  1  0  0  0
  4 33  1  0  0  0
  6 34  1  0  0  0
  8 35  1  0  0  0
  9 36  1  0  0  0
 10 37  1  0  0  0
 15 38  1  0  0  0
 16 39  1  0  0  0
 17 40  1  0  0  0
 17 41  1  0  0  0
 18 42  1  0  0  0
 18 43  1  0  0  0
 22 44  1  0  0  0
 23 45  1  0  0  0
 23 46  1  0  0  0
 23 47  1  0  0  0
 27 48  1  0  0  0
 27 49  1  0  0  0
 28 50  1  0  0  0
 28 51  1  0  0  0
 30 52  1  0  0  0
 30 53  1  0  0  0
 31 54  1  0  0  0
 31 55  1  0  0  0
M  END
$$$$
