### 
### Created by X-TOOL on Sun Jun  3 11:19:43 2007
### 

@<TRIPOS>MOLECULE
2cji_ligand
   55    58     1     0     0
SMALL
GAST_HUCK


@<TRIPOS>ATOM
      1 CL1        13.8980    7.2560   26.6060 Cl        1 SUB1       -0.070
      2 C1         12.2280    7.4970   26.1660 C.ar      1 SUB1        0.041
      3 C2         11.1920    7.0870   27.0520 C.ar      1 SUB1       -0.047
      4 C3          9.8150    7.2600   26.7010 C.ar      1 SUB1       -0.054
      5 C4          9.5110    7.8730   25.4700 C.ar      1 SUB1       -0.016
      6 C5          8.1600    8.0730   25.1010 C.ar      1 SUB1       -0.027
      7 C9         10.5710    8.3160   24.5510 C.ar      1 SUB1       -0.017
      8 C10        11.9260    8.1130   24.9280 C.ar      1 SUB1       -0.040
      9 C8         10.2500    8.9110   23.2990 C.ar      1 SUB1       -0.052
     10 C7          8.8830    9.0720   22.9520 C.ar      1 SUB1       -0.034
     11 C6          7.8540    8.6690   23.8560 C.ar      1 SUB1        0.109
     12 S1          6.1200    8.8440   23.4240 S.o2      1 SUB1        0.071
     13 O2          5.8710   10.1120   22.7990 O.2       1 SUB1       -0.150
     14 O1          5.3500    8.4400   24.5680 O.2       1 SUB1       -0.150
     15 N1          5.8990    7.8290   22.1850 N.am      1 SUB1       -0.225
     16 C12         6.0230    6.3610   22.2380 C.3       1 SUB1        0.128
     17 C13         4.7150    5.6680   21.8630 C.3       1 SUB1        0.005
     18 C14         5.1110    4.3350   21.2130 C.3       1 SUB1        0.041
     19 C15         7.0530    5.6740   21.3390 C.2       1 SUB1        0.203
     20 O3          8.1930    6.0680   21.1110 O.2       1 SUB1       -0.395
     21 N2          6.5120    4.5220   20.8550 N.am      1 SUB1       -0.250
     22 C16         7.3160    3.5150   20.1230 C.3       1 SUB1        0.131
     23 C17         7.0920    2.0900   20.6760 C.3       1 SUB1       -0.024
     24 C18         7.1730    3.5580   18.6090 C.2       1 SUB1        0.204
     25 O4          6.1410    3.9890   18.1180 O.2       1 SUB1       -0.394
     26 N3          8.2350    3.1650   17.8510 N.am      1 SUB1       -0.267
     27 C19         9.6120    3.0050   18.3380 C.3       1 SUB1        0.057
     28 C20        10.1330    1.6310   17.9500 C.3       1 SUB1        0.068
     29 O5         10.1950    1.6410   16.5400 O.3       1 SUB1       -0.376
     30 C22         8.9200    1.7770   15.8930 C.3       1 SUB1        0.068
     31 C23         8.0480    2.9290   16.4170 C.3       1 SUB1        0.057
     32 H          11.4505    6.6356   28.0099 H         1 SUB1        0.062
     33 H           9.0217    6.9257   27.3696 H         1 SUB1        0.062
     34 H           7.3582    7.7688   25.7738 H         1 SUB1        0.064
     35 H          12.7309    8.4309   24.2653 H         1 SUB1        0.063
     36 H          11.0380    9.2367   22.6199 H         1 SUB1        0.062
     37 H           8.6170    9.5065   21.9884 H         1 SUB1        0.064
     38 H           5.6515    8.2416   21.2856 H         1 SUB1        0.171
     39 H           6.3420    6.2501   23.2744 H         1 SUB1        0.075
     40 H           4.1267    6.2802   21.1795 H         1 SUB1        0.033
     41 H           4.0884    5.5077   22.7404 H         1 SUB1        0.033
     42 H           4.4913    4.0956   20.3488 H         1 SUB1        0.053
     43 H           4.9645    3.4880   21.8832 H         1 SUB1        0.053
     44 H           8.3510    3.7993   20.3128 H         1 SUB1        0.080
     45 H           7.3795    2.0602   21.7270 H         1 SUB1        0.028
     46 H           6.0392    1.8251   20.5783 H         1 SUB1        0.028
     47 H           7.6998    1.3829   20.1115 H         1 SUB1        0.028
     48 H           9.6264    3.1048   19.4233 H         1 SUB1        0.054
     49 H          10.2454    3.7719   17.8922 H         1 SUB1        0.054
     50 H           9.4830    0.8369   18.3175 H         1 SUB1        0.058
     51 H          11.1087    1.4320   18.3932 H         1 SUB1        0.058
     52 H           8.3706    0.8546   16.0813 H         1 SUB1        0.058
     53 H           9.1201    1.9856   14.8420 H         1 SUB1        0.058
     54 H           8.3346    3.8368   15.8861 H         1 SUB1        0.054
     55 H           7.0039    2.6627   16.2528 H         1 SUB1        0.054
@<TRIPOS>BOND
     1    1    2 1  
     2    2    3 ar 
     3    2    8 ar 
     4    3    4 ar 
     5    4    5 ar 
     6    5    6 ar 
     7    5    7 ar 
     8    6   11 ar 
     9    7    8 ar 
    10    7    9 ar 
    11    9   10 ar 
    12   10   11 ar 
    13   11   12 1  
    14   12   13 2  
    15   12   14 2  
    16   12   15 1  
    17   15   16 1  
    18   16   17 1  
    19   16   19 1  
    20   17   18 1  
    21   18   21 1  
    22   19   20 2  
    23   19   21 am 
    24   21   22 1  
    25   22   23 1  
    26   22   24 1  
    27   24   25 2  
    28   24   26 am 
    29   26   27 1  
    30   26   31 1  
    31   27   28 1  
    32   28   29 1  
    33   29   30 1  
    34   30   31 1  
    35    3   32 1  
    36    4   33 1  
    37    6   34 1  
    38    8   35 1  
    39    9   36 1  
    40   10   37 1  
    41   15   38 1  
    42   16   39 1  
    43   17   40 1  
    44   17   41 1  
    45   18   42 1  
    46   18   43 1  
    47   22   44 1  
    48   23   45 1  
    49   23   46 1  
    50   23   47 1  
    51   27   48 1  
    52   27   49 1  
    53   28   50 1  
    54   28   51 1  
    55   30   52 1  
    56   30   53 1  
    57   31   54 1  
    58   31   55 1  
@<TRIPOS>SUBSTRUCTURE
     1 SUB1        1 GROUP

