### 
### Created by X-TOOL on Mon Oct 24 23:43:50 2005
### 

@<TRIPOS>MOLECULE
1pzi_ligand
   40    41     1     0     0
SMALL
GAST_HUCK


@<TRIPOS>ATOM
      1 C13        53.1120   23.4760   33.0890 C.3       1 SUB1        0.077
      2 O17        53.6590   24.0000   34.0510 O.3       1 SUB1       -0.383
      3 C11        52.7570   21.9970   33.1180 C.ar      1 SUB1       -0.019
      4 C12        53.0540   21.1930   34.2190 C.ar      1 SUB1       -0.024
      5 C10        52.1330   21.4610   32.0080 C.ar      1 SUB1       -0.026
      6 C9         51.7910   20.1200   31.9920 C.ar      1 SUB1        0.185
      7 N14        51.1680   19.6300   30.9150 N.2       1 SUB1        0.311
      8 O15        51.0000   20.3680   29.9400 O.2       1 SUB1        0.178
      9 O16        50.7550   18.4660   30.9130 O.2       1 SUB1        0.178
     10 C8         52.0840   19.3170   33.0890 C.ar      1 SUB1        0.003
     11 C7         52.7110   19.8410   34.2130 C.ar      1 SUB1        0.096
     12 O1         52.9960   19.0290   35.2800 O.3       1 SUB1       -0.286
     13 C1         51.9690   18.9770   36.2850 C.3       1 SUB1        0.209
     14 O5         50.7470   18.3950   35.7900 O.3       1 SUB1       -0.337
     15 C5         50.9300   17.0310   35.3950 C.3       1 SUB1        0.113
     16 C6         49.6080   16.5440   34.8000 C.3       1 SUB1        0.073
     17 O6         49.2670   17.3850   33.6810 O.3       1 SUB1       -0.392
     18 C4         51.4010   16.1700   36.5670 C.3       1 SUB1        0.112
     19 O4         50.3980   16.1370   37.6040 O.3       1 SUB1       -0.387
     20 C3         52.6980   16.7200   37.1430 C.3       1 SUB1        0.115
     21 O3         53.0470   15.9880   38.3240 O.3       1 SUB1       -0.386
     22 C2         52.5070   18.1990   37.4940 C.3       1 SUB1        0.139
     23 O2         53.7630   18.7340   37.8440 O.3       1 SUB1       -0.384
     24 H11        53.7792   23.6238   32.2271 H         1 SUB1        0.072
     25 H12        52.1722   24.0231   32.9233 H         1 SUB1        0.072
     26 H21        53.8079   24.9200   33.8669 H         1 SUB1        0.213
     27 H41        53.5527   21.6203   35.0814 H         1 SUB1        0.052
     28 H51        51.9120   22.0888   31.1523 H         1 SUB1        0.054
     29 H101       51.8192   18.2661   33.0669 H         1 SUB1        0.056
     30 H131       51.7455   20.0059   36.6036 H         1 SUB1        0.099
     31 H151       51.7031   16.9880   34.6137 H         1 SUB1        0.065
     32 H161       48.8160   16.6018   35.5612 H         1 SUB1        0.058
     33 H162       49.7158   15.5030   34.4612 H         1 SUB1        0.058
     34 H171       49.1766   18.2831   33.9772 H         1 SUB1        0.209
     35 H181       51.5758   15.1460   36.2054 H         1 SUB1        0.065
     36 H191       50.7058   15.5987   38.3237 H         1 SUB1        0.210
     37 H201       53.5020   16.6198   36.3991 H         1 SUB1        0.065
     38 H211       52.3529   16.0762   38.9666 H         1 SUB1        0.210
     39 H221       51.8064   18.2931   38.3368 H         1 SUB1        0.068
     40 H231       54.3590   18.6465   37.1095 H         1 SUB1        0.210
@<TRIPOS>BOND
     1    1    2 1  
     2    1    3 1  
     3    3    4 ar 
     4    3    5 ar 
     5    4   11 ar 
     6    5    6 ar 
     7    6    7 1  
     8    6   10 ar 
     9    7    8 2  
    10    7    9 2  
    11   10   11 ar 
    12   11   12 1  
    13   12   13 1  
    14   13   14 1  
    15   13   22 1  
    16   14   15 1  
    17   15   16 1  
    18   15   18 1  
    19   16   17 1  
    20   18   19 1  
    21   18   20 1  
    22   20   21 1  
    23   20   22 1  
    24   22   23 1  
    25    1   24 1  
    26    1   25 1  
    27    2   26 1  
    28    4   27 1  
    29    5   28 1  
    30   10   29 1  
    31   13   30 1  
    32   15   31 1  
    33   16   32 1  
    34   16   33 1  
    35   17   34 1  
    36   18   35 1  
    37   19   36 1  
    38   20   37 1  
    39   21   38 1  
    40   22   39 1  
    41   23   40 1  
@<TRIPOS>SUBSTRUCTURE
     1 SUB1        1 GROUP

