### 
### Created by X-TOOL on Tue Oct 25 01:35:01 2005
### 

@<TRIPOS>MOLECULE
1q8w_ligand
   37    39     1     0     0
SMALL
GAST_HUCK


@<TRIPOS>ATOM
      1 O1         26.9940   26.9540    9.2830 O.2       1 SUB1       -0.150
      2 S1         27.1860   25.7920    8.4080 S.o2      1 SUB1        0.073
      3 O2         27.9860   26.0500    7.2280 O.2       1 SUB1       -0.150
      4 N4         27.9080   24.6030    9.2490 N.am      1 SUB1       -0.233
      5 C22        27.4130   24.2840   10.6350 C.3       1 SUB1        0.042
      6 C21        28.4790   24.0170   11.7230 C.3       1 SUB1        0.013
      7 N17        29.7220   24.8500   11.4750 N.3       1 SUB1       -0.314
      8 C16        30.6460   24.1750   10.4640 C.3       1 SUB1       -0.003
      9 C20        30.3290   24.5740    9.0120 C.3       1 SUB1       -0.023
     10 C15        29.0210   23.8900    8.5770 C.3       1 SUB1        0.031
     11 C5         25.7240   24.8810    7.9650 C.ar      1 SUB1        0.124
     12 C6         25.7800   23.4940    7.8520 C.ar      1 SUB1       -0.029
     13 C7         24.6130   22.7330    7.5170 C.ar      1 SUB1       -0.053
     14 C8         23.3990   23.3610    7.3210 C.ar      1 SUB1       -0.045
     15 C9         23.3330   24.7720    7.4130 C.ar      1 SUB1        0.011
     16 C10        24.4820   25.5390    7.7340 C.ar      1 SUB1        0.024
     17 C11        24.3120   26.9510    7.8040 C.ar      1 SUB1       -0.029
     18 C14        22.1280   25.4500    7.1710 C.ar      1 SUB1        0.020
     19 N13        21.9990   26.7680    7.2870 N.ar      1 SUB1       -0.297
     20 C12        23.0920   27.5280    7.5800 C.ar      1 SUB1        0.008
     21 H51        26.8082   25.1348   10.9817 H         1 SUB1        0.049
     22 H52        26.7882   23.3810   10.5709 H         1 SUB1        0.049
     23 H61        28.0711   24.2822   12.7095 H         1 SUB1        0.044
     24 H62        28.7613   22.9540   11.7073 H         1 SUB1        0.044
     25 H71        29.4350   25.8151   11.0846 H         1 SUB1        0.122
     26 H81        31.6852   24.4649   10.6785 H         1 SUB1        0.042
     27 H82        30.5357   23.0840   10.5500 H         1 SUB1        0.042
     28 H91        30.2031   25.6645    8.9419 H         1 SUB1        0.029
     29 H92        31.1421   24.2469    8.3473 H         1 SUB1        0.029
     30 H101       29.0403   22.8340    8.8844 H         1 SUB1        0.048
     31 H102       28.9167   23.9607    7.4843 H         1 SUB1        0.048
     32 H121       26.7208   22.9824    8.0200 H         1 SUB1        0.068
     33 H131       24.6838   21.6560    7.4167 H         1 SUB1        0.064
     34 H141       22.5096   22.7820    7.0999 H         1 SUB1        0.066
     35 H171       25.1636   27.5793    8.0387 H         1 SUB1        0.072
     36 H181       21.2607   24.8709    6.8752 H         1 SUB1        0.087
     37 H201       22.9930   28.6060    7.6364 H         1 SUB1        0.078
@<TRIPOS>BOND
     1    1    2 2  
     2    2    3 2  
     3    2    4 am 
     4    2   11 1  
     5    4    5 1  
     6    4   10 1  
     7    5    6 1  
     8    6    7 1  
     9    7    8 1  
    10    8    9 1  
    11    9   10 1  
    12   11   12 ar 
    13   11   16 ar 
    14   12   13 ar 
    15   13   14 ar 
    16   14   15 ar 
    17   15   16 ar 
    18   15   18 ar 
    19   16   17 ar 
    20   17   20 ar 
    21   18   19 ar 
    22   19   20 ar 
    23    5   21 1  
    24    5   22 1  
    25    6   23 1  
    26    6   24 1  
    27    7   25 1  
    28    8   26 1  
    29    8   27 1  
    30    9   28 1  
    31    9   29 1  
    32   10   30 1  
    33   10   31 1  
    34   12   32 1  
    35   13   33 1  
    36   14   34 1  
    37   17   35 1  
    38   18   36 1  
    39   20   37 1  
@<TRIPOS>SUBSTRUCTURE
     1 SUB1        1 GROUP

