1q8w_ligand
  -I-interpret- 

 37 39  0  0  0  0  0  0  0  0999 V2000
   26.9940   26.9540    9.2830 O   0  0  0  0  0
   27.1860   25.7920    8.4080 S   0  0  0  0  0
   27.9860   26.0500    7.2280 O   0  0  0  0  0
   27.9080   24.6030    9.2490 N   0  0  0  0  0
   27.4130   24.2840   10.6350 C   0  0  0  0  0
   28.4790   24.0170   11.7230 C   0  0  0  0  0
   29.7220   24.8500   11.4750 N   0  0  0  0  0
   30.6460   24.1750   10.4640 C   0  0  0  0  0
   30.3290   24.5740    9.0120 C   0  0  0  0  0
   29.0210   23.8900    8.5770 C   0  0  0  0  0
   25.7240   24.8810    7.9650 C   0  0  0  0  0
   25.7800   23.4940    7.8520 C   0  0  0  0  0
   24.6130   22.7330    7.5170 C   0  0  0  0  0
   23.3990   23.3610    7.3210 C   0  0  0  0  0
   23.3330   24.7720    7.4130 C   0  0  0  0  0
   24.4820   25.5390    7.7340 C   0  0  0  0  0
   24.3120   26.9510    7.8040 C   0  0  0  0  0
   22.1280   25.4500    7.1710 C   0  0  0  0  0
   21.9990   26.7680    7.2870 N   0  0  0  0  0
   23.0920   27.5280    7.5800 C   0  0  0  0  0
   26.8082   25.1348   10.9817 H   0  0  0  0  0
   26.7882   23.3810   10.5709 H   0  0  0  0  0
   28.0711   24.2822   12.7095 H   0  0  0  0  0
   28.7613   22.9540   11.7073 H   0  0  0  0  0
   29.4350   25.8151   11.0846 H   0  0  0  0  0
   31.6852   24.4649   10.6785 H   0  0  0  0  0
   30.5357   23.0840   10.5500 H   0  0  0  0  0
   30.2031   25.6645    8.9419 H   0  0  0  0  0
   31.1421   24.2469    8.3473 H   0  0  0  0  0
   29.0403   22.8340    8.8844 H   0  0  0  0  0
   28.9167   23.9607    7.4843 H   0  0  0  0  0
   26.7208   22.9824    8.0200 H   0  0  0  0  0
   24.6838   21.6560    7.4167 H   0  0  0  0  0
   22.5096   22.7820    7.0999 H   0  0  0  0  0
   25.1636   27.5793    8.0387 H   0  0  0  0  0
   21.2607   24.8709    6.8752 H   0  0  0  0  0
   22.9930   28.6060    7.6364 H   0  0  0  0  0
  1  2  2  0  0  0
  2  3  2  0  0  0
  2  4  1  0  0  0
  2 11  1  0  0  0
  4  5  1  0  0  0
  4 10  1  0  0  0
  5  6  1  0  0  0
  6  7  1  0  0  0
  7  8  1  0  0  0
  8  9  1  0  0  0
  9 10  1  0  0  0
 11 12  4  0  0  0
 11 16  4  0  0  0
 12 13  4  0  0  0
 13 14  4  0  0  0
 14 15  4  0  0  0
 15 16  4  0  0  0
 15 18  4  0  0  0
 16 17  4  0  0  0
 17 20  4  0  0  0
 18 19  4  0  0  0
 19 20  4  0  0  0
  5 21  1  0  0  0
  5 22  1  0  0  0
  6 23  1  0  0  0
  6 24  1  0  0  0
  7 25  1  0  0  0
  8 26  1  0  0  0
  8 27  1  0  0  0
  9 28  1  0  0  0
  9 29  1  0  0  0
 10 30  1  0  0  0
 10 31  1  0  0  0
 12 32  1  0  0  0
 13 33  1  0  0  0
 14 34  1  0  0  0
 17 35  1  0  0  0
 18 36  1  0  0  0
 20 37  1  0  0  0
M  END
$$$$
