### 
### Created by X-TOOL on Sun Jun  3 12:01:55 2007
### 

@<TRIPOS>MOLECULE
2evl_ligand
  128   128     1     0     0
SMALL
GAST_HUCK


@<TRIPOS>ATOM
      1 C1         22.8980    0.3900   18.3120 C.3       1 SUB1        0.188
      2 C2         22.2770    1.7350   18.6580 C.3       1 SUB1        0.134
      3 C3         22.9330    2.8130   17.7870 C.3       1 SUB1        0.114
      4 C4         24.4690    2.7580   17.8530 C.3       1 SUB1        0.112
      5 C5         24.9130    1.3460   17.4930 C.3       1 SUB1        0.113
      6 C6         26.4380    1.1950   17.5340 C.3       1 SUB1        0.073
      7 O1         22.4040   -0.6220   19.1620 O.3       1 SUB1       -0.346
      8 O2         20.8720    1.6740   18.4300 O.3       1 SUB1       -0.384
      9 O3         22.4530    4.0840   18.1320 O.3       1 SUB1       -0.386
     10 O4         24.9280    3.0750   19.1590 O.3       1 SUB1       -0.387
     11 O5         24.3090    0.4040   18.3690 O.3       1 SUB1       -0.340
     12 O6         26.7210   -0.0320   16.8870 O.3       1 SUB1       -0.392
     13 C1         22.5500   -1.9350   18.8800 C.3       1 SUB1        0.078
     14 C2         21.4990   -2.8130   19.5440 C.3       1 SUB1        0.098
     15 N2         20.2000   -2.4280   19.0320 N.am      1 SUB1       -0.278
     16 C3         21.6170   -2.6790   21.0570 C.3       1 SUB1        0.098
     17 O3         22.9060   -3.1950   21.4130 O.3       1 SUB1       -0.380
     18 C4         20.5890   -3.4830   21.8100 C.2       1 SUB1       -0.068
     19 C5         19.6520   -2.8830   22.5400 C.2       1 SUB1       -0.096
     20 C6         18.6650   -3.7270   23.3170 C.3       1 SUB1       -0.036
     21 C7         19.2770   -4.0270   24.7040 C.3       1 SUB1       -0.046
     22 C8         20.0720   -5.3510   24.7370 C.3       1 SUB1       -0.052
     23 C9         21.2310   -5.3640   25.7330 C.3       1 SUB1       -0.053
     24 C10        20.9570   -6.3020   26.8980 C.3       1 SUB1       -0.053
     25 C11        22.0700   -6.3110   27.9440 C.3       1 SUB1       -0.053
     26 C12        21.5310   -6.3820   29.3790 C.3       1 SUB1       -0.053
     27 C13        22.5690   -6.8830   30.3910 C.3       1 SUB1       -0.053
     28 C14        21.9670   -6.9300   31.7980 C.3       1 SUB1       -0.053
     29 C15        22.9530   -7.4200   32.8590 C.3       1 SUB1       -0.053
     30 C16        22.3590   -8.3960   33.8780 C.3       1 SUB1       -0.053
     31 C17        21.6120   -7.6800   34.9970 C.3       1 SUB1       -0.056
     32 C18        22.5420   -7.2940   36.1310 C.3       1 SUB1       -0.065
     33 C1         19.0010   -2.6520   18.6120 C.2       1 SUB1        0.176
     34 C2         17.5470   -2.3230   18.2640 C.3       1 SUB1        0.037
     35 C3         16.6450   -2.6220   19.4610 C.3       1 SUB1       -0.036
     36 C4         15.1510   -2.6030   19.1090 C.3       1 SUB1       -0.051
     37 C5         14.4170   -3.6870   19.8930 C.3       1 SUB1       -0.053
     38 C6         12.9340   -3.8480   19.5580 C.3       1 SUB1       -0.052
     39 C7         12.3410   -4.8640   20.5490 C.3       1 SUB1       -0.046
     40 C8         10.9180   -4.4860   20.9370 C.3       1 SUB1       -0.036
     41 C9         10.1800   -5.3710   21.9440 C.2       1 SUB1       -0.097
     42 C10        10.5410   -6.5270   22.5450 C.2       1 SUB1       -0.091
     43 C11        11.8300   -7.3200   22.3870 C.3       1 SUB1       -0.020
     44 C12        12.0550   -8.1970   23.6050 C.2       1 SUB1       -0.091
     45 C13        11.3300   -9.2820   23.8990 C.2       1 SUB1       -0.097
     46 C14        10.1790   -9.7880   23.0540 C.3       1 SUB1       -0.036
     47 C15         8.8420   -9.4360   23.7100 C.3       1 SUB1       -0.046
     48 C16         7.8400   -8.8170   22.7300 C.3       1 SUB1       -0.052
     49 C17         6.7310   -8.0240   23.4300 C.3       1 SUB1       -0.056
     50 C18         6.1330   -6.9900   22.4960 C.3       1 SUB1       -0.065
     51 O1         19.2790   -4.0160   18.2390 O.2       1 SUB1       -0.397
     52 H          22.6127    0.1806   17.2810 H         1 SUB1        0.094
     53 H          22.4418    1.9808   19.7071 H         1 SUB1        0.067
     54 H          22.6575    2.6102   16.7521 H         1 SUB1        0.065
     55 H          24.8866    3.4848   17.1562 H         1 SUB1        0.065
     56 H          24.5893    1.1534   16.4701 H         1 SUB1        0.065
     57 H          26.8096    1.1982   18.5587 H         1 SUB1        0.058
     58 H          26.9328    2.0292   17.0366 H         1 SUB1        0.058
     59 H          20.4879    0.9927   18.9867 H         1 SUB1        0.210
     60 H          21.4943    4.0873   18.0817 H         1 SUB1        0.210
     61 H          24.5577    2.4508   19.7874 H         1 SUB1        0.210
     62 H          26.2867   -0.7478   17.3567 H         1 SUB1        0.209
     63 H          23.5248   -2.2464   19.2553 H         1 SUB1        0.059
     64 H          22.4457   -2.0542   17.8016 H         1 SUB1        0.059
     65 H          21.6451   -3.8683   19.3134 H         1 SUB1        0.062
     66 H          20.2752   -1.4128   18.9675 H         1 SUB1        0.186
     67 H          21.4680   -1.6314   21.3185 H         1 SUB1        0.074
     68 H          23.0241   -3.1299   22.3635 H         1 SUB1        0.213
     69 H          20.6131   -4.5714   21.7560 H         1 SUB1        0.048
     70 H          19.5960   -1.7951   22.5779 H         1 SUB1        0.045
     71 H          18.4659   -4.6573   22.7851 H         1 SUB1        0.039
     72 H          17.7216   -3.1930   23.4303 H         1 SUB1        0.039
     73 H          18.4577   -4.1129   25.4177 H         1 SUB1        0.029
     74 H          19.9670   -3.2184   24.9452 H         1 SUB1        0.029
     75 H          20.5002   -5.4928   23.7447 H         1 SUB1        0.027
     76 H          19.3781   -6.1342   25.0422 H         1 SUB1        0.027
     77 H          21.3591   -4.3553   26.1257 H         1 SUB1        0.026
     78 H          22.1260   -5.7096   25.2156 H         1 SUB1        0.026
     79 H          20.8765   -7.3116   26.4951 H         1 SUB1        0.026
     80 H          20.0468   -5.9584   27.3895 H         1 SUB1        0.026
     81 H          22.6328   -5.3831   27.8427 H         1 SUB1        0.026
     82 H          22.6843   -7.1949   27.7724 H         1 SUB1        0.026
     83 H          20.6985   -7.0855   29.3844 H         1 SUB1        0.026
     84 H          21.2430   -5.3729   29.6737 H         1 SUB1        0.026
     85 H          23.4198   -6.2016   30.3924 H         1 SUB1        0.026
     86 H          22.8845   -7.8870   30.1071 H         1 SUB1        0.026
     87 H          21.1308   -7.6289   31.7763 H         1 SUB1        0.026
     88 H          21.6717   -5.9153   32.0650 H         1 SUB1        0.026
     89 H          23.2849   -6.5428   33.4144 H         1 SUB1        0.026
     90 H          23.7469   -7.9516   32.3344 H         1 SUB1        0.026
     91 H          23.1785   -8.9590   34.3246 H         1 SUB1        0.026
     92 H          21.6508   -9.0399   33.3566 H         1 SUB1        0.026
     93 H          20.8513   -8.3545   35.3899 H         1 SUB1        0.026
     94 H          21.1701   -6.7708   34.5894 H         1 SUB1        0.026
     95 H          23.0023   -8.1919   36.5433 H         1 SUB1        0.023
     96 H          23.3172   -6.6277   35.7526 H         1 SUB1        0.023
     97 H          21.9725   -6.7860   36.9093 H         1 SUB1        0.023
     98 H          17.2335   -2.9326   17.4165 H         1 SUB1        0.050
     99 H          17.4685   -1.2659   18.0100 H         1 SUB1        0.050
    100 H          16.8190   -1.8478   20.2083 H         1 SUB1        0.029
    101 H          16.8886   -3.6229   19.8173 H         1 SUB1        0.029
    102 H          15.0314   -2.7888   18.0416 H         1 SUB1        0.027
    103 H          14.7340   -1.6294   19.3664 H         1 SUB1        0.027
    104 H          14.4696   -3.4010   20.9435 H         1 SUB1        0.026
    105 H          14.8974   -4.6325   19.6414 H         1 SUB1        0.026
    106 H          12.8116   -4.2000   18.5337 H         1 SUB1        0.027
    107 H          12.4193   -2.8908   19.6412 H         1 SUB1        0.027
    108 H          12.9566   -4.8736   21.4485 H         1 SUB1        0.029
    109 H          12.3239   -5.8449   20.0740 H         1 SUB1        0.029
    110 H          10.3410   -4.5589   20.0151 H         1 SUB1        0.039
    111 H          11.0019   -3.5122   21.4194 H         1 SUB1        0.039
    112 H           9.1922   -5.0062   22.2255 H         1 SUB1        0.046
    113 H           9.8102   -6.9476   23.2358 H         1 SUB1        0.046
    114 H          12.6658   -6.6278   22.2852 H         1 SUB1        0.051
    115 H          11.7560   -7.9504   21.5009 H         1 SUB1        0.051
    116 H          12.8614   -7.9245   24.2858 H         1 SUB1        0.046
    117 H          11.5831   -9.8365   24.8027 H         1 SUB1        0.046
    118 H          10.2553  -10.8714   22.9617 H         1 SUB1        0.039
    119 H          10.2269   -9.3194   22.0710 H         1 SUB1        0.039
    120 H           9.0384   -8.7026   24.4921 H         1 SUB1        0.029
    121 H           8.4061  -10.3590   24.0923 H         1 SUB1        0.029
    122 H           7.3692   -9.6304   22.1779 H         1 SUB1        0.027
    123 H           8.3867   -8.1272   22.0870 H         1 SUB1        0.027
    124 H           7.1573   -7.5121   24.2928 H         1 SUB1        0.026
    125 H           5.9459   -8.7152   23.7365 H         1 SUB1        0.026
    126 H           6.9116   -6.2974   22.1765 H         1 SUB1        0.023
    127 H           5.7103   -7.4905   21.6248 H         1 SUB1        0.023
    128 H           5.3487   -6.4415   23.0176 H         1 SUB1        0.023
@<TRIPOS>BOND
     1    1    2 1  
     2    1    7 1  
     3    1   11 1  
     4    2    3 1  
     5    2    8 1  
     6    3    4 1  
     7    3    9 1  
     8    4    5 1  
     9    4   10 1  
    10    5    6 1  
    11    5   11 1  
    12    6   12 1  
    13    7   13 1  
    14   13   14 1  
    15   14   15 1  
    16   14   16 1  
    17   15   33 am 
    18   16   17 1  
    19   16   18 1  
    20   18   19 2  
    21   19   20 1  
    22   20   21 1  
    23   21   22 1  
    24   22   23 1  
    25   23   24 1  
    26   24   25 1  
    27   25   26 1  
    28   26   27 1  
    29   27   28 1  
    30   28   29 1  
    31   29   30 1  
    32   30   31 1  
    33   31   32 1  
    34   33   34 1  
    35   33   51 2  
    36   34   35 1  
    37   35   36 1  
    38   36   37 1  
    39   37   38 1  
    40   38   39 1  
    41   39   40 1  
    42   40   41 1  
    43   41   42 2  
    44   42   43 1  
    45   43   44 1  
    46   44   45 2  
    47   45   46 1  
    48   46   47 1  
    49   47   48 1  
    50   48   49 1  
    51   49   50 1  
    52    1   52 1  
    53    2   53 1  
    54    3   54 1  
    55    4   55 1  
    56    5   56 1  
    57    6   57 1  
    58    6   58 1  
    59    8   59 1  
    60    9   60 1  
    61   10   61 1  
    62   12   62 1  
    63   13   63 1  
    64   13   64 1  
    65   14   65 1  
    66   15   66 1  
    67   16   67 1  
    68   17   68 1  
    69   18   69 1  
    70   19   70 1  
    71   20   71 1  
    72   20   72 1  
    73   21   73 1  
    74   21   74 1  
    75   22   75 1  
    76   22   76 1  
    77   23   77 1  
    78   23   78 1  
    79   24   79 1  
    80   24   80 1  
    81   25   81 1  
    82   25   82 1  
    83   26   83 1  
    84   26   84 1  
    85   27   85 1  
    86   27   86 1  
    87   28   87 1  
    88   28   88 1  
    89   29   89 1  
    90   29   90 1  
    91   30   91 1  
    92   30   92 1  
    93   31   93 1  
    94   31   94 1  
    95   32   95 1  
    96   32   96 1  
    97   32   97 1  
    98   34   98 1  
    99   34   99 1  
   100   35  100 1  
   101   35  101 1  
   102   36  102 1  
   103   36  103 1  
   104   37  104 1  
   105   37  105 1  
   106   38  106 1  
   107   38  107 1  
   108   39  108 1  
   109   39  109 1  
   110   40  110 1  
   111   40  111 1  
   112   41  112 1  
   113   42  113 1  
   114   43  114 1  
   115   43  115 1  
   116   44  116 1  
   117   45  117 1  
   118   46  118 1  
   119   46  119 1  
   120   47  120 1  
   121   47  121 1  
   122   48  122 1  
   123   48  123 1  
   124   49  124 1  
   125   49  125 1  
   126   50  126 1  
   127   50  127 1  
   128   50  128 1  
@<TRIPOS>SUBSTRUCTURE
     1 SUB1        1 GROUP

