2evl_ligand
  -I-interpret- 

128128  0  0  0  0  0  0  0  0999 V2000
   22.8980    0.3900   18.3120 C   0  0  0  0  0
   22.2770    1.7350   18.6580 C   0  0  0  0  0
   22.9330    2.8130   17.7870 C   0  0  0  0  0
   24.4690    2.7580   17.8530 C   0  0  0  0  0
   24.9130    1.3460   17.4930 C   0  0  0  0  0
   26.4380    1.1950   17.5340 C   0  0  0  0  0
   22.4040   -0.6220   19.1620 O   0  0  0  0  0
   20.8720    1.6740   18.4300 O   0  0  0  0  0
   22.4530    4.0840   18.1320 O   0  0  0  0  0
   24.9280    3.0750   19.1590 O   0  0  0  0  0
   24.3090    0.4040   18.3690 O   0  0  0  0  0
   26.7210   -0.0320   16.8870 O   0  0  0  0  0
   22.5500   -1.9350   18.8800 C   0  0  0  0  0
   21.4990   -2.8130   19.5440 C   0  0  0  0  0
   20.2000   -2.4280   19.0320 N   0  0  0  0  0
   21.6170   -2.6790   21.0570 C   0  0  0  0  0
   22.9060   -3.1950   21.4130 O   0  0  0  0  0
   20.5890   -3.4830   21.8100 C   0  0  0  0  0
   19.6520   -2.8830   22.5400 C   0  0  0  0  0
   18.6650   -3.7270   23.3170 C   0  0  0  0  0
   19.2770   -4.0270   24.7040 C   0  0  0  0  0
   20.0720   -5.3510   24.7370 C   0  0  0  0  0
   21.2310   -5.3640   25.7330 C   0  0  0  0  0
   20.9570   -6.3020   26.8980 C   0  0  0  0  0
   22.0700   -6.3110   27.9440 C   0  0  0  0  0
   21.5310   -6.3820   29.3790 C   0  0  0  0  0
   22.5690   -6.8830   30.3910 C   0  0  0  0  0
   21.9670   -6.9300   31.7980 C   0  0  0  0  0
   22.9530   -7.4200   32.8590 C   0  0  0  0  0
   22.3590   -8.3960   33.8780 C   0  0  0  0  0
   21.6120   -7.6800   34.9970 C   0  0  0  0  0
   22.5420   -7.2940   36.1310 C   0  0  0  0  0
   19.0010   -2.6520   18.6120 C   0  0  0  0  0
   17.5470   -2.3230   18.2640 C   0  0  0  0  0
   16.6450   -2.6220   19.4610 C   0  0  0  0  0
   15.1510   -2.6030   19.1090 C   0  0  0  0  0
   14.4170   -3.6870   19.8930 C   0  0  0  0  0
   12.9340   -3.8480   19.5580 C   0  0  0  0  0
   12.3410   -4.8640   20.5490 C   0  0  0  0  0
   10.9180   -4.4860   20.9370 C   0  0  0  0  0
   10.1800   -5.3710   21.9440 C   0  0  0  0  0
   10.5410   -6.5270   22.5450 C   0  0  0  0  0
   11.8300   -7.3200   22.3870 C   0  0  0  0  0
   12.0550   -8.1970   23.6050 C   0  0  0  0  0
   11.3300   -9.2820   23.8990 C   0  0  0  0  0
   10.1790   -9.7880   23.0540 C   0  0  0  0  0
    8.8420   -9.4360   23.7100 C   0  0  0  0  0
    7.8400   -8.8170   22.7300 C   0  0  0  0  0
    6.7310   -8.0240   23.4300 C   0  0  0  0  0
    6.1330   -6.9900   22.4960 C   0  0  0  0  0
   19.2790   -4.0160   18.2390 O   0  0  0  0  0
   22.6127    0.1806   17.2810 H   0  0  0  0  0
   22.4418    1.9808   19.7071 H   0  0  0  0  0
   22.6575    2.6102   16.7521 H   0  0  0  0  0
   24.8866    3.4848   17.1562 H   0  0  0  0  0
   24.5893    1.1534   16.4701 H   0  0  0  0  0
   26.8096    1.1982   18.5587 H   0  0  0  0  0
   26.9328    2.0292   17.0366 H   0  0  0  0  0
   20.4879    0.9927   18.9867 H   0  0  0  0  0
   21.4943    4.0873   18.0817 H   0  0  0  0  0
   24.5577    2.4508   19.7874 H   0  0  0  0  0
   26.2867   -0.7478   17.3567 H   0  0  0  0  0
   23.5248   -2.2464   19.2553 H   0  0  0  0  0
   22.4457   -2.0542   17.8016 H   0  0  0  0  0
   21.6451   -3.8683   19.3134 H   0  0  0  0  0
   20.2752   -1.4128   18.9675 H   0  0  0  0  0
   21.4680   -1.6314   21.3185 H   0  0  0  0  0
   23.0241   -3.1299   22.3635 H   0  0  0  0  0
   20.6131   -4.5714   21.7560 H   0  0  0  0  0
   19.5960   -1.7951   22.5779 H   0  0  0  0  0
   18.4659   -4.6573   22.7851 H   0  0  0  0  0
   17.7216   -3.1930   23.4303 H   0  0  0  0  0
   18.4577   -4.1129   25.4177 H   0  0  0  0  0
   19.9670   -3.2184   24.9452 H   0  0  0  0  0
   20.5002   -5.4928   23.7447 H   0  0  0  0  0
   19.3781   -6.1342   25.0422 H   0  0  0  0  0
   21.3591   -4.3553   26.1257 H   0  0  0  0  0
   22.1260   -5.7096   25.2156 H   0  0  0  0  0
   20.8765   -7.3116   26.4951 H   0  0  0  0  0
   20.0468   -5.9584   27.3895 H   0  0  0  0  0
   22.6328   -5.3831   27.8427 H   0  0  0  0  0
   22.6843   -7.1949   27.7724 H   0  0  0  0  0
   20.6985   -7.0855   29.3844 H   0  0  0  0  0
   21.2430   -5.3729   29.6737 H   0  0  0  0  0
   23.4198   -6.2016   30.3924 H   0  0  0  0  0
   22.8845   -7.8870   30.1071 H   0  0  0  0  0
   21.1308   -7.6289   31.7763 H   0  0  0  0  0
   21.6717   -5.9153   32.0650 H   0  0  0  0  0
   23.2849   -6.5428   33.4144 H   0  0  0  0  0
   23.7469   -7.9516   32.3344 H   0  0  0  0  0
   23.1785   -8.9590   34.3246 H   0  0  0  0  0
   21.6508   -9.0399   33.3566 H   0  0  0  0  0
   20.8513   -8.3545   35.3899 H   0  0  0  0  0
   21.1701   -6.7708   34.5894 H   0  0  0  0  0
   23.0023   -8.1919   36.5433 H   0  0  0  0  0
   23.3172   -6.6277   35.7526 H   0  0  0  0  0
   21.9725   -6.7860   36.9093 H   0  0  0  0  0
   17.2335   -2.9326   17.4165 H   0  0  0  0  0
   17.4685   -1.2659   18.0100 H   0  0  0  0  0
   16.8190   -1.8478   20.2083 H   0  0  0  0  0
   16.8886   -3.6229   19.8173 H   0  0  0  0  0
   15.0314   -2.7888   18.0416 H   0  0  0  0  0
   14.7340   -1.6294   19.3664 H   0  0  0  0  0
   14.4696   -3.4010   20.9435 H   0  0  0  0  0
   14.8974   -4.6325   19.6414 H   0  0  0  0  0
   12.8116   -4.2000   18.5337 H   0  0  0  0  0
   12.4193   -2.8908   19.6412 H   0  0  0  0  0
   12.9566   -4.8736   21.4485 H   0  0  0  0  0
   12.3239   -5.8449   20.0740 H   0  0  0  0  0
   10.3410   -4.5589   20.0151 H   0  0  0  0  0
   11.0019   -3.5122   21.4194 H   0  0  0  0  0
    9.1922   -5.0062   22.2255 H   0  0  0  0  0
    9.8102   -6.9476   23.2358 H   0  0  0  0  0
   12.6658   -6.6278   22.2852 H   0  0  0  0  0
   11.7560   -7.9504   21.5009 H   0  0  0  0  0
   12.8614   -7.9245   24.2858 H   0  0  0  0  0
   11.5831   -9.8365   24.8027 H   0  0  0  0  0
   10.2553  -10.8714   22.9617 H   0  0  0  0  0
   10.2269   -9.3194   22.0710 H   0  0  0  0  0
    9.0384   -8.7026   24.4921 H   0  0  0  0  0
    8.4061  -10.3590   24.0923 H   0  0  0  0  0
    7.3692   -9.6304   22.1779 H   0  0  0  0  0
    8.3867   -8.1272   22.0870 H   0  0  0  0  0
    7.1573   -7.5121   24.2928 H   0  0  0  0  0
    5.9459   -8.7152   23.7365 H   0  0  0  0  0
    6.9116   -6.2974   22.1765 H   0  0  0  0  0
    5.7103   -7.4905   21.6248 H   0  0  0  0  0
    5.3487   -6.4415   23.0176 H   0  0  0  0  0
  1  2  1  0  0  0
  1  7  1  0  0  0
  1 11  1  0  0  0
  2  3  1  0  0  0
  2  8  1  0  0  0
  3  4  1  0  0  0
  3  9  1  0  0  0
  4  5  1  0  0  0
  4 10  1  0  0  0
  5  6  1  0  0  0
  5 11  1  0  0  0
  6 12  1  0  0  0
  7 13  1  0  0  0
 13 14  1  0  0  0
 14 15  1  0  0  0
 14 16  1  0  0  0
 15 33  1  0  0  0
 16 17  1  0  0  0
 16 18  1  0  0  0
 18 19  2  0  0  0
 19 20  1  0  0  0
 20 21  1  0  0  0
 21 22  1  0  0  0
 22 23  1  0  0  0
 23 24  1  0  0  0
 24 25  1  0  0  0
 25 26  1  0  0  0
 26 27  1  0  0  0
 27 28  1  0  0  0
 28 29  1  0  0  0
 29 30  1  0  0  0
 30 31  1  0  0  0
 31 32  1  0  0  0
 33 34  1  0  0  0
 33 51  2  0  0  0
 34 35  1  0  0  0
 35 36  1  0  0  0
 36 37  1  0  0  0
 37 38  1  0  0  0
 38 39  1  0  0  0
 39 40  1  0  0  0
 40 41  1  0  0  0
 41 42  2  0  0  0
 42 43  1  0  0  0
 43 44  1  0  0  0
 44 45  2  0  0  0
 45 46  1  0  0  0
 46 47  1  0  0  0
 47 48  1  0  0  0
 48 49  1  0  0  0
 49 50  1  0  0  0
  1 52  1  0  0  0
  2 53  1  0  0  0
  3 54  1  0  0  0
  4 55  1  0  0  0
  5 56  1  0  0  0
  6 57  1  0  0  0
  6 58  1  0  0  0
  8 59  1  0  0  0
  9 60  1  0  0  0
 10 61  1  0  0  0
 12 62  1  0  0  0
 13 63  1  0  0  0
 13 64  1  0  0  0
 14 65  1  0  0  0
 15 66  1  0  0  0
 16 67  1  0  0  0
 17 68  1  0  0  0
 18 69  1  0  0  0
 19 70  1  0  0  0
 20 71  1  0  0  0
 20 72  1  0  0  0
 21 73  1  0  0  0
 21 74  1  0  0  0
 22 75  1  0  0  0
 22 76  1  0  0  0
 23 77  1  0  0  0
 23 78  1  0  0  0
 24 79  1  0  0  0
 24 80  1  0  0  0
 25 81  1  0  0  0
 25 82  1  0  0  0
 26 83  1  0  0  0
 26 84  1  0  0  0
 27 85  1  0  0  0
 27 86  1  0  0  0
 28 87  1  0  0  0
 28 88  1  0  0  0
 29 89  1  0  0  0
 29 90  1  0  0  0
 30 91  1  0  0  0
 30 92  1  0  0  0
 31 93  1  0  0  0
 31 94  1  0  0  0
 32 95  1  0  0  0
 32 96  1  0  0  0
 32 97  1  0  0  0
 34 98  1  0  0  0
 34 99  1  0  0  0
 35100  1  0  0  0
 35101  1  0  0  0
 36102  1  0  0  0
 36103  1  0  0  0
 37104  1  0  0  0
 37105  1  0  0  0
 38106  1  0  0  0
 38107  1  0  0  0
 39108  1  0  0  0
 39109  1  0  0  0
 40110  1  0  0  0
 40111  1  0  0  0
 41112  1  0  0  0
 42113  1  0  0  0
 43114  1  0  0  0
 43115  1  0  0  0
 44116  1  0  0  0
 45117  1  0  0  0
 46118  1  0  0  0
 46119  1  0  0  0
 47120  1  0  0  0
 47121  1  0  0  0
 48122  1  0  0  0
 48123  1  0  0  0
 49124  1  0  0  0
 49125  1  0  0  0
 50126  1  0  0  0
 50127  1  0  0  0
 50128  1  0  0  0
M  END
$$$$
