1g3d_ligand
  -I-interpret- 

 30 30  0  0  0  0  0  0  0  0999 V2000
   42.9566   -4.2509   27.3830 H   0  0  0  0  0
   44.7306    0.3358   27.6084 H   0  0  0  0  0
   44.9796   -0.9662   25.5479 H   0  0  0  0  0
   42.1574   -4.1387   29.6263 H   0  0  0  0  0
   44.0633   -0.8083   30.4894 H   0  0  0  0  0
   44.7734   -3.4695   23.1648 H   0  0  0  0  0
   43.9870   -2.6970   26.3260 C   0  0  0  0  0
   43.3470   -3.2410   27.4360 C   0  0  0  0  0
   43.1980   -2.5080   28.6200 C   0  0  0  0  0
   43.7030   -1.2100   28.6780 C   0  0  0  0  0
   44.3390   -0.6740   27.5640 C   0  0  0  0  0
   44.4800   -1.4050   26.4040 C   0  0  0  0  0
   42.5220   -3.1200   29.7500 C   0  0  0  0  0
   44.2130   -3.4920   25.1320 C   0  3  0  0  0
   43.6210   -0.4010   29.7540 O   0  0  0  0  0
   44.6130   -2.9060   24.0120 N   0  0  0  0  0
   44.0270   -4.8040   25.1560 N   0  0  0  0  0
   42.3180   -2.5430   30.9020 N   0  0  0  0  0
   41.6190   -3.3180   31.9250 C   0  0  0  0  0
   42.5800   -4.2920   32.5890 C   0  0  0  0  0
   40.9930   -2.4060   32.9730 C   0  0  0  0  0
   40.2610   -2.9110   33.8330 O   0  0  0  0  0
   41.2740   -1.1530   32.8900 O   0  5  0  0  0
   44.7633   -1.8873   23.9890 H   0  0  0  0  0
   43.7163   -5.2643   26.0235 H   0  0  0  0  0
   44.1931   -5.3633   24.3072 H   0  0  0  0  0
   40.8163   -3.8919   31.4389 H   0  0  0  0  0
   42.0443   -4.8698   33.3566 H   0  0  0  0  0
   43.4026   -3.7328   33.0586 H   0  0  0  0  0
   42.9881   -4.9780   31.8321 H   0  0  0  0  0
  8  1  1  0  0  0
 11  2  1  0  0  0
 12  3  1  0  0  0
 13  4  1  0  0  0
  7 14  1  0  0  0
  7 12  4  0  0  0
  8  7  4  0  0  0
  9  8  4  0  0  0
  9 13  1  0  0  0
 10  9  4  0  0  0
 10 15  1  0  0  0
 10 11  4  0  0  0
 11 12  4  0  0  0
 13 18  2  0  0  0
 18 19  1  0  0  0
 19 21  1  0  0  0
 19 20  1  0  0  0
 21 23  1  0  0  0
 21 22  2  0  0  0
 14 17  1  0  0  0
 14 16  1  0  0  0
 15  5  1  0  0  0
 16  6  1  0  0  0
 16 24  1  0  0  0
 17 25  1  0  0  0
 17 26  1  0  0  0
 19 27  1  0  0  0
 20 28  1  0  0  0
 20 29  1  0  0  0
 20 30  1  0  0  0
M  END
$$$$
