### 
### Created by X-TOOL on Mon Oct 24 22:41:52 2005
### 

@<TRIPOS>MOLECULE
1g3d_ligand
   30    30     1     0     0
SMALL
GAST_HUCK


@<TRIPOS>ATOM
      1 H81        42.9566   -4.2509   27.3830 H         1 SUB1        0.071
      2 H111       44.7306    0.3358   27.6084 H         1 SUB1        0.056
      3 H121       44.9796   -0.9662   25.5479 H         1 SUB1        0.070
      4 H131       42.1574   -4.1387   29.6263 H         1 SUB1        0.108
      5 H151       44.0633   -0.8083   30.4894 H         1 SUB1        0.253
      6 H161       44.7734   -3.4695   23.1648 H         1 SUB1        0.192
      7 C1         43.9870   -2.6970   26.3260 C.ar      1 SUB1        0.183
      8 C2         43.3470   -3.2410   27.4360 C.ar      1 SUB1        0.005
      9 C3         43.1980   -2.5080   28.6200 C.ar      1 SUB1        0.048
     10 C4         43.7030   -1.2100   28.6780 C.ar      1 SUB1        0.112
     11 C5         44.3390   -0.6740   27.5640 C.ar      1 SUB1       -0.019
     12 C6         44.4800   -1.4050   26.4040 C.ar      1 SUB1       -0.008
     13 C7         42.5220   -3.1200   29.7500 C.2       1 SUB1        0.017
     14 C8         44.2130   -3.4920   25.1320 C.cat     1 SUB1        0.312
     15 O1         43.6210   -0.4010   29.7540 O.3       1 SUB1       -0.324
     16 N1         44.6130   -2.9060   24.0120 N.pl3     1 SUB1       -0.201
     17 N2         44.0270   -4.8040   25.1560 N.pl3     1 SUB1       -0.201
     18 N          42.3180   -2.5430   30.9020 N.2       1 SUB1       -0.324
     19 CA         41.6190   -3.3180   31.9250 C.3       1 SUB1        0.052
     20 CB         42.5800   -4.2920   32.5890 C.3       1 SUB1       -0.040
     21 C          40.9930   -2.4060   32.9730 C.2       1 SUB1        0.042
     22 O          40.2610   -2.9110   33.8330 O.co2     1 SUB1       -0.565
     23 OXT        41.2740   -1.1530   32.8900 O.co2     1 SUB1       -0.565
     24 H162       44.7633   -1.8873   23.9890 H         1 SUB1        0.192
     25 H171       43.7163   -5.2643   26.0235 H         1 SUB1        0.192
     26 H172       44.1931   -5.3633   24.3072 H         1 SUB1        0.192
     27 H191       40.8163   -3.8919   31.4389 H         1 SUB1        0.064
     28 H201       42.0443   -4.8698   33.3566 H         1 SUB1        0.028
     29 H202       43.4026   -3.7328   33.0586 H         1 SUB1        0.028
     30 H203       42.9881   -4.9780   31.8321 H         1 SUB1        0.028
@<TRIPOS>BOND
     1    8    1 1  
     2   11    2 1  
     3   12    3 1  
     4   13    4 1  
     5    7   14 1  
     6    7   12 ar 
     7    8    7 ar 
     8    9    8 ar 
     9    9   13 1  
    10   10    9 ar 
    11   10   15 1  
    12   10   11 ar 
    13   11   12 ar 
    14   13   18 2  
    15   18   19 1  
    16   19   21 1  
    17   19   20 1  
    18   21   23 2  
    19   21   22 2  
    20   14   17 1  
    21   14   16 1  
    22   15    5 1  
    23   16    6 1  
    24   16   24 1  
    25   17   25 1  
    26   17   26 1  
    27   19   27 1  
    28   20   28 1  
    29   20   29 1  
    30   20   30 1  
@<TRIPOS>SUBSTRUCTURE
     1 SUB1        1 GROUP

