### 
### Created by X-TOOL on Mon Oct 24 23:14:40 2005
### 

@<TRIPOS>MOLECULE
1sb1_ligand
   78    82     1     0     0
SMALL
GAST_HUCK


@<TRIPOS>ATOM
      1 H411       10.3090  -11.5567   14.9504 H         1 SUB1        0.080
      2 H421        9.2240  -11.6647   17.2267 H         1 SUB1        0.031
      3 H422       10.0772  -13.1936   17.6280 H         1 SUB1        0.031
      4 H431        8.0159  -12.8877   15.3469 H         1 SUB1        0.029
      5 H432        7.6942  -13.6838   16.9246 H         1 SUB1        0.029
      6 H441        9.7853  -15.1200   16.6220 H         1 SUB1        0.052
      7 H442        8.7952  -15.3012   15.1342 H         1 SUB1        0.052
      8 H471       12.9302  -13.4535   14.7288 H         1 SUB1        0.186
      9 H481       14.4804  -12.5360   17.1229 H         1 SUB1        0.058
     10 H491       15.5701  -10.7809   16.1287 H         1 SUB1        0.041
     11 H492       14.1025  -10.7407   15.0937 H         1 SUB1        0.041
     12 H531       18.3357  -11.1554   10.3152 H         1 SUB1        0.184
     13 H532       17.8065   -9.5335   10.8366 H         1 SUB1        0.184
     14 H561       17.0649  -14.5676   14.2919 H         1 SUB1        0.036
     15 H562       15.4520  -14.6227   13.5033 H         1 SUB1        0.036
     16 H571       14.6998  -14.8692   15.7358 H         1 SUB1        0.030
     17 H572       16.1644  -14.0911   16.4258 H         1 SUB1        0.030
     18 H601        9.2867  -15.7662   13.3125 H         1 SUB1        0.075
     19 H611       10.9057  -16.9644   14.7618 H         1 SUB1        0.170
     20 H651       11.4405  -17.9661   12.3641 H         1 SUB1        0.068
     21 H652       11.7734  -18.8253   13.9061 H         1 SUB1        0.068
     22 H671       12.1197  -18.8461   10.3733 H         1 SUB1        0.056
     23 H681       13.6035  -20.3789    8.9698 H         1 SUB1        0.060
     24 H691       15.5291  -21.6868   10.0895 H         1 SUB1        0.056
     25 H701       15.9217  -21.4748   12.6119 H         1 SUB1        0.060
     26 H711       14.4122  -19.9162   14.0407 H         1 SUB1        0.056
     27 H721       10.6092  -16.6678   11.1661 H         1 SUB1        0.031
     28 H722       11.5332  -15.1290   11.2346 H         1 SUB1        0.031
     29 H731        9.2391  -13.8414   11.7522 H         1 SUB1        0.030
     30 H741        7.7568  -15.7279   12.6473 H         1 SUB1        0.027
     31 H742        7.6894  -16.4769   11.0160 H         1 SUB1        0.027
     32 H751        6.3306  -13.8560   11.9669 H         1 SUB1        0.026
     33 H752        5.5466  -15.3245   11.2921 H         1 SUB1        0.026
     34 H761        5.6747  -13.2238    9.7226 H         1 SUB1        0.026
     35 H762        6.2171  -14.7891    9.0279 H         1 SUB1        0.026
     36 H771        7.9844  -12.4293    9.9634 H         1 SUB1        0.026
     37 H772        7.8334  -13.0957    8.3022 H         1 SUB1        0.026
     38 H781        8.9382  -15.2353    9.0431 H         1 SUB1        0.027
     39 H782       10.0002  -13.8233    9.3672 H         1 SUB1        0.027
     40 N19        10.2600  -13.7020   15.0490 N.am      1 SUB1       -0.250
     41 C23        10.5710  -12.3900   15.6190 C.3       1 SUB1        0.134
     42 C22         9.5900  -12.6210   16.8250 C.3       1 SUB1       -0.010
     43 C21         8.4750  -13.4070   16.2010 C.3       1 SUB1       -0.028
     44 C20         9.3230  -14.5840   15.7800 C.3       1 SUB1        0.037
     45 C24        11.9710  -12.1810   16.1990 C.2       1 SUB1        0.202
     46 O39        12.0720  -11.4380   17.1950 O.2       1 SUB1       -0.394
     47 N25        13.0980  -12.8640   15.5190 N.am      1 SUB1       -0.280
     48 C26        14.4890  -12.6600   16.0300 C.3       1 SUB1        0.050
     49 C31        14.9880  -11.3300   15.3740 C.3       1 SUB1        0.002
     50 C30        15.8590  -11.4800   14.1330 C.2       1 SUB1        0.011
     51 S34        16.2950  -10.0690   13.2480 S.3       1 SUB1        0.004
     52 C33        17.1920  -11.1080   12.0590 C.2       1 SUB1        0.166
     53 N35        17.8310  -10.5530   10.9810 N.pl3     1 SUB1       -0.303
     54 N32        17.1310  -12.3740   12.3690 N.2       1 SUB1       -0.330
     55 C29        16.3400  -12.6680   13.5960 C.2       1 SUB1       -0.031
     56 C28        16.0970  -14.0550   14.1900 C.3       1 SUB1       -0.030
     57 C27        15.3730  -14.0020   15.6670 C.3       1 SUB1       -0.023
     58 C18        10.7970  -14.1300   13.6970 C.2       1 SUB1        0.203
     59 O38        11.5270  -13.3320   13.0290 O.2       1 SUB1       -0.395
     60 C10        10.3460  -15.5480   13.1120 C.3       1 SUB1        0.127
     61 N9         11.3260  -16.4730   13.9990 N.am      1 SUB1       -0.228
     62 S8         13.0050  -16.7040   13.7760 S.o2      1 SUB1        0.051
     63 O36        13.7590  -16.6480   12.5800 O.2       1 SUB1       -0.153
     64 O37        13.5390  -17.4550   14.8680 O.2       1 SUB1       -0.153
     65 C7         12.2270  -18.2760   13.0680 C.3       1 SUB1        0.118
     66 C5         13.1590  -19.2610   12.3180 C.ar      1 SUB1       -0.020
     67 C6         12.9240  -19.3990   10.8450 C.ar      1 SUB1       -0.059
     68 C1         13.7790  -20.2810   10.0350 C.ar      1 SUB1       -0.068
     69 C2         14.8920  -21.0430   10.6850 C.ar      1 SUB1       -0.069
     70 C3         15.1210  -20.9160   12.1410 C.ar      1 SUB1       -0.068
     71 C4         14.2450  -20.0120   12.9740 C.ar      1 SUB1       -0.059
     72 C11        10.6100  -15.6370   11.5500 C.3       1 SUB1       -0.013
     73 C12         9.1870  -14.7650   11.1570 C.3       1 SUB1       -0.037
     74 C13         7.7460  -15.5260   11.5660 C.3       1 SUB1       -0.050
     75 C14         6.4220  -14.6620   11.2240 C.3       1 SUB1       -0.053
     76 C15         6.4480  -14.0050    9.7640 C.3       1 SUB1       -0.053
     77 C16         7.8460  -13.3470    9.3730 C.3       1 SUB1       -0.053
     78 C17         9.0690  -14.3320    9.6570 C.3       1 SUB1       -0.050
@<TRIPOS>BOND
     1   41    1 1  
     2   42    2 1  
     3   42    3 1  
     4   43    4 1  
     5   43    5 1  
     6   44    6 1  
     7   44    7 1  
     8   47    8 1  
     9   48    9 1  
    10   49   10 1  
    11   49   11 1  
    12   53   12 1  
    13   53   13 1  
    14   56   14 1  
    15   56   15 1  
    16   57   16 1  
    17   57   17 1  
    18   60   18 1  
    19   61   19 1  
    20   65   20 1  
    21   65   21 1  
    22   67   22 1  
    23   68   23 1  
    24   69   24 1  
    25   70   25 1  
    26   71   26 1  
    27   72   27 1  
    28   72   28 1  
    29   73   29 1  
    30   74   30 1  
    31   74   31 1  
    32   75   32 1  
    33   75   33 1  
    34   76   34 1  
    35   76   35 1  
    36   77   36 1  
    37   77   37 1  
    38   78   38 1  
    39   78   39 1  
    40   40   41 1  
    41   40   44 1  
    42   58   40 am 
    43   41   42 1  
    44   41   45 1  
    45   43   42 1  
    46   44   43 1  
    47   45   46 2  
    48   45   47 am 
    49   47   48 1  
    50   48   49 1  
    51   48   57 1  
    52   49   50 1  
    53   50   51 1  
    54   50   55 2  
    55   51   52 1  
    56   52   53 1  
    57   54   52 2  
    58   55   54 1  
    59   56   55 1  
    60   57   56 1  
    61   58   59 2  
    62   60   58 1  
    63   60   61 1  
    64   72   60 1  
    65   61   62 1  
    66   62   63 2  
    67   62   64 2  
    68   62   65 1  
    69   65   66 1  
    70   66   67 ar 
    71   66   71 ar 
    72   67   68 ar 
    73   68   69 ar 
    74   70   69 ar 
    75   71   70 ar 
    76   73   72 1  
    77   74   73 1  
    78   73   78 1  
    79   75   74 1  
    80   76   75 1  
    81   76   77 1  
    82   77   78 1  
@<TRIPOS>SUBSTRUCTURE
     1 SUB1        1 GROUP

