1sb1_ligand
  -I-interpret- 

 78 82  0  0  0  0  0  0  0  0999 V2000
   10.3090  -11.5567   14.9504 H   0  0  0  0  0
    9.2240  -11.6647   17.2267 H   0  0  0  0  0
   10.0772  -13.1936   17.6280 H   0  0  0  0  0
    8.0159  -12.8877   15.3469 H   0  0  0  0  0
    7.6942  -13.6838   16.9246 H   0  0  0  0  0
    9.7853  -15.1200   16.6220 H   0  0  0  0  0
    8.7952  -15.3012   15.1342 H   0  0  0  0  0
   12.9302  -13.4535   14.7288 H   0  0  0  0  0
   14.4804  -12.5360   17.1229 H   0  0  0  0  0
   15.5701  -10.7809   16.1287 H   0  0  0  0  0
   14.1025  -10.7407   15.0937 H   0  0  0  0  0
   18.3357  -11.1554   10.3152 H   0  0  0  0  0
   17.8065   -9.5335   10.8366 H   0  0  0  0  0
   17.0649  -14.5676   14.2919 H   0  0  0  0  0
   15.4520  -14.6227   13.5033 H   0  0  0  0  0
   14.6998  -14.8692   15.7358 H   0  0  0  0  0
   16.1644  -14.0911   16.4258 H   0  0  0  0  0
    9.2867  -15.7662   13.3125 H   0  0  0  0  0
   10.9057  -16.9644   14.7618 H   0  0  0  0  0
   11.4405  -17.9661   12.3641 H   0  0  0  0  0
   11.7734  -18.8253   13.9061 H   0  0  0  0  0
   12.1197  -18.8461   10.3733 H   0  0  0  0  0
   13.6035  -20.3789    8.9698 H   0  0  0  0  0
   15.5291  -21.6868   10.0895 H   0  0  0  0  0
   15.9217  -21.4748   12.6119 H   0  0  0  0  0
   14.4122  -19.9162   14.0407 H   0  0  0  0  0
   10.6092  -16.6678   11.1661 H   0  0  0  0  0
   11.5332  -15.1290   11.2346 H   0  0  0  0  0
    9.2391  -13.8414   11.7522 H   0  0  0  0  0
    7.7568  -15.7279   12.6473 H   0  0  0  0  0
    7.6894  -16.4769   11.0160 H   0  0  0  0  0
    6.3306  -13.8560   11.9669 H   0  0  0  0  0
    5.5466  -15.3245   11.2921 H   0  0  0  0  0
    5.6747  -13.2238    9.7226 H   0  0  0  0  0
    6.2171  -14.7891    9.0279 H   0  0  0  0  0
    7.9844  -12.4293    9.9634 H   0  0  0  0  0
    7.8334  -13.0957    8.3022 H   0  0  0  0  0
    8.9382  -15.2353    9.0431 H   0  0  0  0  0
   10.0002  -13.8233    9.3672 H   0  0  0  0  0
   10.2600  -13.7020   15.0490 N   0  0  0  0  0
   10.5710  -12.3900   15.6190 C   0  0  0  0  0
    9.5900  -12.6210   16.8250 C   0  0  0  0  0
    8.4750  -13.4070   16.2010 C   0  0  0  0  0
    9.3230  -14.5840   15.7800 C   0  0  0  0  0
   11.9710  -12.1810   16.1990 C   0  0  0  0  0
   12.0720  -11.4380   17.1950 O   0  0  0  0  0
   13.0980  -12.8640   15.5190 N   0  0  0  0  0
   14.4890  -12.6600   16.0300 C   0  0  0  0  0
   14.9880  -11.3300   15.3740 C   0  0  0  0  0
   15.8590  -11.4800   14.1330 C   0  0  0  0  0
   16.2950  -10.0690   13.2480 S   0  0  0  0  0
   17.1920  -11.1080   12.0590 C   0  0  0  0  0
   17.8310  -10.5530   10.9810 N   0  0  0  0  0
   17.1310  -12.3740   12.3690 N   0  0  0  0  0
   16.3400  -12.6680   13.5960 C   0  0  0  0  0
   16.0970  -14.0550   14.1900 C   0  0  0  0  0
   15.3730  -14.0020   15.6670 C   0  0  0  0  0
   10.7970  -14.1300   13.6970 C   0  0  0  0  0
   11.5270  -13.3320   13.0290 O   0  0  0  0  0
   10.3460  -15.5480   13.1120 C   0  0  0  0  0
   11.3260  -16.4730   13.9990 N   0  0  0  0  0
   13.0050  -16.7040   13.7760 S   0  0  0  0  0
   13.7590  -16.6480   12.5800 O   0  0  0  0  0
   13.5390  -17.4550   14.8680 O   0  0  0  0  0
   12.2270  -18.2760   13.0680 C   0  0  0  0  0
   13.1590  -19.2610   12.3180 C   0  0  0  0  0
   12.9240  -19.3990   10.8450 C   0  0  0  0  0
   13.7790  -20.2810   10.0350 C   0  0  0  0  0
   14.8920  -21.0430   10.6850 C   0  0  0  0  0
   15.1210  -20.9160   12.1410 C   0  0  0  0  0
   14.2450  -20.0120   12.9740 C   0  0  0  0  0
   10.6100  -15.6370   11.5500 C   0  0  0  0  0
    9.1870  -14.7650   11.1570 C   0  0  0  0  0
    7.7460  -15.5260   11.5660 C   0  0  0  0  0
    6.4220  -14.6620   11.2240 C   0  0  0  0  0
    6.4480  -14.0050    9.7640 C   0  0  0  0  0
    7.8460  -13.3470    9.3730 C   0  0  0  0  0
    9.0690  -14.3320    9.6570 C   0  0  0  0  0
 41  1  1  0  0  0
 42  2  1  0  0  0
 42  3  1  0  0  0
 43  4  1  0  0  0
 43  5  1  0  0  0
 44  6  1  0  0  0
 44  7  1  0  0  0
 47  8  1  0  0  0
 48  9  1  0  0  0
 49 10  1  0  0  0
 49 11  1  0  0  0
 53 12  1  0  0  0
 53 13  1  0  0  0
 56 14  1  0  0  0
 56 15  1  0  0  0
 57 16  1  0  0  0
 57 17  1  0  0  0
 60 18  1  0  0  0
 61 19  1  0  0  0
 65 20  1  0  0  0
 65 21  1  0  0  0
 67 22  1  0  0  0
 68 23  1  0  0  0
 69 24  1  0  0  0
 70 25  1  0  0  0
 71 26  1  0  0  0
 72 27  1  0  0  0
 72 28  1  0  0  0
 73 29  1  0  0  0
 74 30  1  0  0  0
 74 31  1  0  0  0
 75 32  1  0  0  0
 75 33  1  0  0  0
 76 34  1  0  0  0
 76 35  1  0  0  0
 77 36  1  0  0  0
 77 37  1  0  0  0
 78 38  1  0  0  0
 78 39  1  0  0  0
 40 41  1  0  0  0
 40 44  1  0  0  0
 58 40  1  0  0  0
 41 42  1  0  0  0
 41 45  1  0  0  0
 43 42  1  0  0  0
 44 43  1  0  0  0
 45 46  2  0  0  0
 45 47  1  0  0  0
 47 48  1  0  0  0
 48 49  1  0  0  0
 48 57  1  0  0  0
 49 50  1  0  0  0
 50 51  1  0  0  0
 50 55  2  0  0  0
 51 52  1  0  0  0
 52 53  1  0  0  0
 54 52  2  0  0  0
 55 54  1  0  0  0
 56 55  1  0  0  0
 57 56  1  0  0  0
 58 59  2  0  0  0
 60 58  1  0  0  0
 60 61  1  0  0  0
 72 60  1  0  0  0
 61 62  1  0  0  0
 62 63  2  0  0  0
 62 64  2  0  0  0
 62 65  1  0  0  0
 65 66  1  0  0  0
 66 67  4  0  0  0
 66 71  4  0  0  0
 67 68  4  0  0  0
 68 69  4  0  0  0
 70 69  4  0  0  0
 71 70  4  0  0  0
 73 72  1  0  0  0
 74 73  1  0  0  0
 73 78  1  0  0  0
 75 74  1  0  0  0
 76 75  1  0  0  0
 76 77  1  0  0  0
 77 78  1  0  0  0
M  END
$$$$
