1dqn_ligand
  -I-interpret- 

 39 41  0  0  0  0  0  0  0  0999 V2000
   23.4040   11.0060   47.1590 P   0  0  0  0  0
   18.0050    9.8050   54.4590 C   0  0  0  0  0
   24.0260   11.8820   48.1770 O   0  5  0  0  0
   22.7370   11.7560   46.0770 O   0  0  0  0  0
   24.4530   10.0810   46.6370 O   0  5  0  0  0
   22.4130   10.0680   47.9320 O   0  0  0  0  0
   21.7530    8.9170   47.3940 C   0  0  0  0  0
   20.9110    8.2770   48.4380 C   0  0  0  0  0
   21.4180    8.3900   49.8160 N   0  3  0  0  0
   19.5220    8.8420   48.5160 C   0  0  0  0  0
   18.7800    8.4630   47.3580 O   0  0  0  0  0
   19.0780    8.2690   49.7960 C   0  0  0  0  0
   18.5730    6.9360   49.6500 O   0  0  0  0  0
   20.3140    8.4140   50.7730 C   0  0  0  0  0
   20.1040    9.7860   51.4320 C   0  0  0  0  0
   20.6030   11.0340   51.0080 C   0  0  0  0  0
   20.2430   12.0520   51.7560 N   0  0  0  0  0
   19.4580   11.4860   52.7440 C   0  0  0  0  0
   18.7640   12.1070   53.8530 C   0  0  0  0  0
   18.7340   13.2870   54.1320 O   0  0  0  0  0
   18.0630   11.1930   54.6610 N   0  0  0  0  0
   17.2950    9.0910   55.3270 N   0  0  0  0  0
   18.6530    9.1980   53.4000 N   0  0  0  0  0
   19.3640   10.0890   52.5760 C   0  0  0  0  0
   21.1078    9.2182   46.5556 H   0  0  0  0  0
   22.5014    8.1888   47.0484 H   0  0  0  0  0
   20.8318    7.2114   48.1769 H   0  0  0  0  0
   22.0062    7.5984   50.0243 H   0  0  0  0  0
   21.9446    9.2441   49.9120 H   0  0  0  0  0
   19.5280    9.9395   48.5889 H   0  0  0  0  0
   18.7319    7.5155   47.3102 H   0  0  0  0  0
   18.2619    8.8844   50.2024 H   0  0  0  0  0
   17.8307    6.9429   49.0572 H   0  0  0  0  0
   20.3946    7.6231   51.5332 H   0  0  0  0  0
   21.2370   11.1455   50.1296 H   0  0  0  0  0
   20.4891   13.0448   51.6345 H   0  0  0  0  0
   17.5643   11.5631   55.4448 H   0  0  0  0  0
   17.2247    8.0692   55.2178 H   0  0  0  0  0
   16.8152    9.5596   56.1088 H   0  0  0  0  0
  1  3  1  0  0  0
  1  4  2  0  0  0
  1  5  1  0  0  0
  1  6  1  0  0  0
  6  7  1  0  0  0
  7  8  1  0  0  0
  8  9  1  0  0  0
  8 10  1  0  0  0
  9 14  1  0  0  0
 10 11  1  0  0  0
 10 12  1  0  0  0
 12 13  1  0  0  0
 12 14  1  0  0  0
 14 15  1  0  0  0
 15 16  2  0  0  0
 15 24  1  0  0  0
 16 17  1  0  0  0
 17 18  1  0  0  0
 18 19  1  0  0  0
 18 24  2  0  0  0
 19 20  2  0  0  0
 19 21  1  0  0  0
 24 23  1  0  0  0
 23  2  2  0  0  0
  2 22  1  0  0  0
 21  2  1  0  0  0
  7 25  1  0  0  0
  7 26  1  0  0  0
  8 27  1  0  0  0
  9 28  1  0  0  0
  9 29  1  0  0  0
 10 30  1  0  0  0
 11 31  1  0  0  0
 12 32  1  0  0  0
 13 33  1  0  0  0
 14 34  1  0  0  0
 16 35  1  0  0  0
 17 36  1  0  0  0
 21 37  1  0  0  0
 22 38  1  0  0  0
 22 39  1  0  0  0
M  END
$$$$
