### 
### Created by X-TOOL on Tue Oct 25 02:23:28 2005
### 

@<TRIPOS>MOLECULE
1mrn_ligand
   80    84     1     0     0
SMALL
GAST_HUCK


@<TRIPOS>ATOM
      1 BN1        24.1110    9.6250    9.2120 N.am      1 SUB1       -0.174
      2 BC6        25.4490    9.9530    9.3140 C.2       1 SUB1        0.052
      3 BC2        23.6230    8.3500    9.4760 C.2       1 SUB1        0.326
      4 BO2        22.4300    7.9550    9.3900 O.2       1 SUB1       -0.384
      5 BN3        24.6220    7.4520    9.8570 N.am      1 SUB1       -0.186
      6 BC4        26.0010    7.6980    9.9840 C.2       1 SUB1        0.193
      7 BO4        26.8160    6.7920   10.3330 O.2       1 SUB1       -0.408
      8 BC5        26.4040    9.0710    9.6790 C.2       1 SUB1        0.023
      9 BC7        27.8940    9.4200    9.7910 C.3       1 SUB1       -0.044
     10 BC5'       24.2260   13.3990    6.7610 C.3       1 SUB1        0.089
     11 BC4'       23.1620   12.4870    7.3760 C.3       1 SUB1        0.114
     12 BO4'       23.7380   11.1810    7.5520 O.3       1 SUB1       -0.340
     13 BC1'       23.1750   10.6430    8.7860 C.3       1 SUB1        0.176
     14 BC2'       23.0710   11.9250    9.6460 C.3       1 SUB1        0.031
     15 BC3'       22.6820   13.0410    8.7000 C.3       1 SUB1        0.089
     16 BO3'       21.2800   13.2560    8.6190 O.3       1 SUB1       -0.389
     17 PA         25.8040   14.8290    8.2550 P.3       1 SUB1        0.297
     18 O1A        27.2270   14.9810    8.3680 O.co2     1 SUB1       -0.533
     19 O2A        25.0420   14.9790    9.5080 O.co2     1 SUB1       -0.533
     20 BO5'       25.3210   13.4090    7.5910 O.3       1 SUB1       -0.319
     21 O3A        25.2430   15.9610    7.6370 O.3       1 SUB1       -0.252
     22 PB         25.4270   16.7690    6.2260 P.3       1 SUB1        0.321
     23 O1B        24.2190   17.6130    5.9880 O.co2     1 SUB1       -0.532
     24 O2B        25.7480   15.7670    5.1770 O.co2     1 SUB1       -0.532
     25 O3B        26.7780   17.5170    6.4650 O.3       1 SUB1       -0.255
     26 PC         27.2590   18.9290    6.3660 P.3       1 SUB1        0.315
     27 O1C        27.1910   19.4870    7.7200 O.co2     1 SUB1       -0.531
     28 O2C        28.5620   18.8750    5.7020 O.co2     1 SUB1       -0.531
     29 O3C        26.2330   19.6350    5.3300 O.3       1 SUB1       -0.255
     30 PD         26.3060   20.8590    4.2080 P.3       1 SUB1        0.321
     31 O1D        26.9790   22.0460    4.8210 O.co2     1 SUB1       -0.532
     32 O2D        24.9320   20.8980    3.7130 O.co2     1 SUB1       -0.532
     33 O3D        27.4110   20.4020    3.1330 O.3       1 SUB1       -0.252
     34 PE         27.4650   19.6650    1.6680 P.3       1 SUB1        0.297
     35 O1E        26.5450   20.3750    0.7210 O.co2     1 SUB1       -0.533
     36 O2E        28.9080   19.6790    1.3920 O.co2     1 SUB1       -0.533
     37 AO5'       26.9960   18.2220    2.0350 O.3       1 SUB1       -0.319
     38 AC5'       25.9710   17.5140    1.3160 C.3       1 SUB1        0.089
     39 AC4'       26.4680   16.3420    0.5290 C.3       1 SUB1        0.116
     40 AO4'       25.3100   15.7720   -0.0650 O.3       1 SUB1       -0.336
     41 AC1'       25.3950   15.6600   -1.5130 C.3       1 SUB1        0.201
     42 AC2'       26.8920   15.7060   -1.8010 C.3       1 SUB1        0.139
     43 AO2'       27.3340   14.3550   -1.7580 O.3       1 SUB1       -0.384
     44 AC3'       27.4610   16.6530   -0.6890 C.3       1 SUB1        0.115
     45 AO3'       28.7600   16.2420   -0.2310 O.3       1 SUB1       -0.386
     46 AN9        24.7480   16.7900   -2.2420 N.pl3     1 SUB1       -0.192
     47 AC4        24.1280   16.6910   -3.4800 C.ar      1 SUB1        0.161
     48 AN3        23.9900   15.5380   -4.2540 N.ar      1 SUB1       -0.271
     49 AC2        23.3380   15.7670   -5.4220 C.ar      1 SUB1        0.053
     50 AN1        22.8450   16.9840   -5.8470 N.ar      1 SUB1       -0.270
     51 AC6        22.9900   18.1110   -5.0680 C.ar      1 SUB1        0.130
     52 AN6        22.4830   19.2260   -5.5670 N.pl3     1 SUB1       -0.315
     53 AC5        23.6700   17.9730   -3.8000 C.ar      1 SUB1        0.105
     54 AN7        23.9950   18.8390   -2.7860 N.2       1 SUB1       -0.296
     55 AC8        24.6180   18.1230   -1.8990 C.2       1 SUB1        0.112
     56 H21        25.7489   10.9753    9.0885 H         1 SUB1        0.101
     57 H51        24.3206    6.5214   10.0647 H         1 SUB1        0.226
     58 H91        28.0340   10.4799    9.5322 H         1 SUB1        0.030
     59 H92        28.2417    9.2540   10.8213 H         1 SUB1        0.030
     60 H93        28.4777    8.8010    9.0938 H         1 SUB1        0.030
     61 H101       24.5252   13.0179    5.7735 H         1 SUB1        0.062
     62 H102       23.8363   14.4232    6.6654 H         1 SUB1        0.062
     63 H111       22.2962   12.4216    6.7008 H         1 SUB1        0.065
     64 H131       22.1748   10.2042    8.6554 H         1 SUB1        0.096
     65 H141       22.2983   11.8098   10.4204 H         1 SUB1        0.034
     66 H142       24.0392   12.1568   10.1138 H         1 SUB1        0.034
     67 H151       23.1743   13.9878    8.9667 H         1 SUB1        0.062
     68 H161       20.9659   13.6042    9.4452 H         1 SUB1        0.210
     69 H381       25.2295   17.1410    2.0378 H         1 SUB1        0.062
     70 H382       25.4917   18.2098    0.6117 H         1 SUB1        0.062
     71 H391       26.9680   15.6341    1.2063 H         1 SUB1        0.065
     72 H411       24.9432   14.7172   -1.8549 H         1 SUB1        0.100
     73 H421       27.1136   16.1394   -2.7874 H         1 SUB1        0.068
     74 H431       28.2674   14.3227   -1.9318 H         1 SUB1        0.210
     75 H441       27.4751   17.7083   -0.9991 H         1 SUB1        0.065
     76 H451       28.7044   15.3650    0.1301 H         1 SUB1        0.210
     77 H491       23.1913   14.9181   -6.0800 H         1 SUB1        0.100
     78 H521       22.5555   20.1067   -5.0378 H         1 SUB1        0.182
     79 H522       22.0156   19.2136   -6.4848 H         1 SUB1        0.182
     80 H551       25.0036   18.5360   -0.9680 H         1 SUB1        0.135
@<TRIPOS>BOND
     1    1    2 am 
     2    1    3 am 
     3   13    1 1  
     4    2    8 2  
     5    3    4 2  
     6    3    5 am 
     7    5    6 am 
     8    6    7 2  
     9    8    6 1  
    10    8    9 1  
    11   10   11 1  
    12   11   12 1  
    13   12   13 1  
    14   14   13 1  
    15   15   14 1  
    16   11   15 1  
    17   15   16 1  
    18   17   18 2  
    19   17   19 2  
    20   20   17 1  
    21   17   21 1  
    22   10   20 1  
    23   21   22 1  
    24   22   23 2  
    25   22   24 2  
    26   22   25 1  
    27   25   26 1  
    28   26   27 2  
    29   26   28 2  
    30   26   29 1  
    31   29   30 1  
    32   30   31 2  
    33   30   32 2  
    34   30   33 1  
    35   33   34 1  
    36   34   35 2  
    37   34   36 2  
    38   34   37 1  
    39   37   38 1  
    40   38   39 1  
    41   39   40 1  
    42   39   44 1  
    43   40   41 1  
    44   41   42 1  
    45   41   46 1  
    46   42   43 1  
    47   42   44 1  
    48   44   45 1  
    49   46   47 1  
    50   46   55 1  
    51   47   48 ar 
    52   47   53 ar 
    53   48   49 ar 
    54   49   50 ar 
    55   50   51 ar 
    56   51   52 1  
    57   51   53 ar 
    58   53   54 1  
    59   54   55 2  
    60    2   56 1  
    61    5   57 1  
    62    9   58 1  
    63    9   59 1  
    64    9   60 1  
    65   10   61 1  
    66   10   62 1  
    67   11   63 1  
    68   13   64 1  
    69   14   65 1  
    70   14   66 1  
    71   15   67 1  
    72   16   68 1  
    73   38   69 1  
    74   38   70 1  
    75   39   71 1  
    76   41   72 1  
    77   42   73 1  
    78   43   74 1  
    79   44   75 1  
    80   45   76 1  
    81   49   77 1  
    82   52   78 1  
    83   52   79 1  
    84   55   80 1  
@<TRIPOS>SUBSTRUCTURE
     1 SUB1        1 GROUP

