1mrn_ligand
  -I-interpret- 

 80 84  0  0  0  0  0  0  0  0999 V2000
   24.1110    9.6250    9.2120 N   0  0  0  0  0
   25.4490    9.9530    9.3140 C   0  0  0  0  0
   23.6230    8.3500    9.4760 C   0  0  0  0  0
   22.4300    7.9550    9.3900 O   0  0  0  0  0
   24.6220    7.4520    9.8570 N   0  0  0  0  0
   26.0010    7.6980    9.9840 C   0  0  0  0  0
   26.8160    6.7920   10.3330 O   0  0  0  0  0
   26.4040    9.0710    9.6790 C   0  0  0  0  0
   27.8940    9.4200    9.7910 C   0  0  0  0  0
   24.2260   13.3990    6.7610 C   0  0  0  0  0
   23.1620   12.4870    7.3760 C   0  0  0  0  0
   23.7380   11.1810    7.5520 O   0  0  0  0  0
   23.1750   10.6430    8.7860 C   0  0  0  0  0
   23.0710   11.9250    9.6460 C   0  0  0  0  0
   22.6820   13.0410    8.7000 C   0  0  0  0  0
   21.2800   13.2560    8.6190 O   0  0  0  0  0
   25.8040   14.8290    8.2550 P   0  0  0  0  0
   27.2270   14.9810    8.3680 O   0  0  0  0  0
   25.0420   14.9790    9.5080 O   0  5  0  0  0
   25.3210   13.4090    7.5910 O   0  0  0  0  0
   25.2430   15.9610    7.6370 O   0  0  0  0  0
   25.4270   16.7690    6.2260 P   0  0  0  0  0
   24.2190   17.6130    5.9880 O   0  5  0  0  0
   25.7480   15.7670    5.1770 O   0  0  0  0  0
   26.7780   17.5170    6.4650 O   0  0  0  0  0
   27.2590   18.9290    6.3660 P   0  0  0  0  0
   27.1910   19.4870    7.7200 O   0  5  0  0  0
   28.5620   18.8750    5.7020 O   0  0  0  0  0
   26.2330   19.6350    5.3300 O   0  0  0  0  0
   26.3060   20.8590    4.2080 P   0  0  0  0  0
   26.9790   22.0460    4.8210 O   0  5  0  0  0
   24.9320   20.8980    3.7130 O   0  0  0  0  0
   27.4110   20.4020    3.1330 O   0  0  0  0  0
   27.4650   19.6650    1.6680 P   0  0  0  0  0
   26.5450   20.3750    0.7210 O   0  5  0  0  0
   28.9080   19.6790    1.3920 O   0  0  0  0  0
   26.9960   18.2220    2.0350 O   0  0  0  0  0
   25.9710   17.5140    1.3160 C   0  0  0  0  0
   26.4680   16.3420    0.5290 C   0  0  0  0  0
   25.3100   15.7720   -0.0650 O   0  0  0  0  0
   25.3950   15.6600   -1.5130 C   0  0  0  0  0
   26.8920   15.7060   -1.8010 C   0  0  0  0  0
   27.3340   14.3550   -1.7580 O   0  0  0  0  0
   27.4610   16.6530   -0.6890 C   0  0  0  0  0
   28.7600   16.2420   -0.2310 O   0  0  0  0  0
   24.7480   16.7900   -2.2420 N   0  0  0  0  0
   24.1280   16.6910   -3.4800 C   0  0  0  0  0
   23.9900   15.5380   -4.2540 N   0  0  0  0  0
   23.3380   15.7670   -5.4220 C   0  0  0  0  0
   22.8450   16.9840   -5.8470 N   0  0  0  0  0
   22.9900   18.1110   -5.0680 C   0  0  0  0  0
   22.4830   19.2260   -5.5670 N   0  0  0  0  0
   23.6700   17.9730   -3.8000 C   0  0  0  0  0
   23.9950   18.8390   -2.7860 N   0  0  0  0  0
   24.6180   18.1230   -1.8990 C   0  0  0  0  0
   25.7489   10.9753    9.0885 H   0  0  0  0  0
   24.3206    6.5214   10.0647 H   0  0  0  0  0
   28.0340   10.4799    9.5322 H   0  0  0  0  0
   28.2417    9.2540   10.8213 H   0  0  0  0  0
   28.4777    8.8010    9.0938 H   0  0  0  0  0
   24.5252   13.0179    5.7735 H   0  0  0  0  0
   23.8363   14.4232    6.6654 H   0  0  0  0  0
   22.2962   12.4216    6.7008 H   0  0  0  0  0
   22.1748   10.2042    8.6554 H   0  0  0  0  0
   22.2983   11.8098   10.4204 H   0  0  0  0  0
   24.0392   12.1568   10.1138 H   0  0  0  0  0
   23.1743   13.9878    8.9667 H   0  0  0  0  0
   20.9659   13.6042    9.4452 H   0  0  0  0  0
   25.2295   17.1410    2.0378 H   0  0  0  0  0
   25.4917   18.2098    0.6117 H   0  0  0  0  0
   26.9680   15.6341    1.2063 H   0  0  0  0  0
   24.9432   14.7172   -1.8549 H   0  0  0  0  0
   27.1136   16.1394   -2.7874 H   0  0  0  0  0
   28.2674   14.3227   -1.9318 H   0  0  0  0  0
   27.4751   17.7083   -0.9991 H   0  0  0  0  0
   28.7044   15.3650    0.1301 H   0  0  0  0  0
   23.1913   14.9181   -6.0800 H   0  0  0  0  0
   22.5555   20.1067   -5.0378 H   0  0  0  0  0
   22.0156   19.2136   -6.4848 H   0  0  0  0  0
   25.0036   18.5360   -0.9680 H   0  0  0  0  0
  1  2  1  0  0  0
  1  3  1  0  0  0
 13  1  1  0  0  0
  2  8  2  0  0  0
  3  4  2  0  0  0
  3  5  1  0  0  0
  5  6  1  0  0  0
  6  7  2  0  0  0
  8  6  1  0  0  0
  8  9  1  0  0  0
 10 11  1  0  0  0
 11 12  1  0  0  0
 12 13  1  0  0  0
 14 13  1  0  0  0
 15 14  1  0  0  0
 11 15  1  0  0  0
 15 16  1  0  0  0
 17 18  2  0  0  0
 17 19  1  0  0  0
 20 17  1  0  0  0
 17 21  1  0  0  0
 10 20  1  0  0  0
 21 22  1  0  0  0
 22 23  1  0  0  0
 22 24  2  0  0  0
 22 25  1  0  0  0
 25 26  1  0  0  0
 26 27  1  0  0  0
 26 28  2  0  0  0
 26 29  1  0  0  0
 29 30  1  0  0  0
 30 31  1  0  0  0
 30 32  2  0  0  0
 30 33  1  0  0  0
 33 34  1  0  0  0
 34 35  1  0  0  0
 34 36  2  0  0  0
 34 37  1  0  0  0
 37 38  1  0  0  0
 38 39  1  0  0  0
 39 40  1  0  0  0
 39 44  1  0  0  0
 40 41  1  0  0  0
 41 42  1  0  0  0
 41 46  1  0  0  0
 42 43  1  0  0  0
 42 44  1  0  0  0
 44 45  1  0  0  0
 46 47  1  0  0  0
 46 55  1  0  0  0
 47 48  4  0  0  0
 47 53  4  0  0  0
 48 49  4  0  0  0
 49 50  4  0  0  0
 50 51  4  0  0  0
 51 52  1  0  0  0
 51 53  4  0  0  0
 53 54  1  0  0  0
 54 55  2  0  0  0
  2 56  1  0  0  0
  5 57  1  0  0  0
  9 58  1  0  0  0
  9 59  1  0  0  0
  9 60  1  0  0  0
 10 61  1  0  0  0
 10 62  1  0  0  0
 11 63  1  0  0  0
 13 64  1  0  0  0
 14 65  1  0  0  0
 14 66  1  0  0  0
 15 67  1  0  0  0
 16 68  1  0  0  0
 38 69  1  0  0  0
 38 70  1  0  0  0
 39 71  1  0  0  0
 41 72  1  0  0  0
 42 73  1  0  0  0
 43 74  1  0  0  0
 44 75  1  0  0  0
 45 76  1  0  0  0
 49 77  1  0  0  0
 52 78  1  0  0  0
 52 79  1  0  0  0
 55 80  1  0  0  0
M  END
$$$$
