### 
### Created by X-TOOL on Mon Oct 24 23:44:36 2005
### 

@<TRIPOS>MOLECULE
1hpx_ligand
   87    90     1     0     0
SMALL
GAST_HUCK


@<TRIPOS>ATOM
      1 C1          6.8480    1.1810    6.1590 C.ar      1 SUB1        0.005
      2 C2          6.3030    2.0170    7.1160 C.ar      1 SUB1       -0.030
      3 C3          6.8860    3.2730    7.3630 C.ar      1 SUB1        0.034
      4 C4          7.9910    3.5920    6.6130 C.ar      1 SUB1        0.001
      5 C5          8.4680    2.6490    5.6450 C.ar      1 SUB1        0.015
      6 C6          6.3520    4.1700    8.3470 C.ar      1 SUB1        0.115
      7 C7          7.0000    5.3880    8.5210 C.ar      1 SUB1       -0.028
      8 C8          8.1090    5.7150    7.7740 C.ar      1 SUB1       -0.069
      9 C9          8.6290    4.8460    6.8160 C.ar      1 SUB1       -0.060
     10 C10         5.1400    4.3750   10.3520 C.3       1 SUB1        0.161
     11 C11         4.0670    3.6830   11.1060 C.2       1 SUB1        0.210
     12 C12         1.9440    1.0010   10.8350 C.3       1 SUB1        0.034
     13 C13         3.7830    0.5420   12.4570 C.2       1 SUB1        0.203
     14 C14         5.3500    0.0820   14.2740 C.3       1 SUB1        0.094
     15 C15         4.7050   -0.1800   15.6420 C.3       1 SUB1        0.168
     16 C16         6.7750    0.6540   14.3470 C.3       1 SUB1        0.009
     17 C17         5.3390   -1.3860   16.3300 C.2       1 SUB1        0.213
     18 C18         5.3730   -3.8190   16.5060 C.3       1 SUB1        0.143
     19 C19         4.4270   -4.9930   16.2580 C.3       1 SUB1        0.036
     20 C20         3.5440   -2.6640   15.2240 C.3       1 SUB1        0.083
     21 C21         6.6530   -3.9790   15.7410 C.2       1 SUB1        0.203
     22 C22         9.0130   -4.6390   15.8920 C.3       1 SUB1        0.045
     23 C23         9.5560   -3.2490   15.5420 C.3       1 SUB1       -0.040
     24 C24         9.0970   -5.5670   14.6780 C.3       1 SUB1       -0.040
     25 C25         9.8800   -5.1830   17.0210 C.3       1 SUB1       -0.040
     26 C26         3.0280    1.6030   11.6960 C.3       1 SUB1        0.140
     27 C27        -0.1580    2.0560   12.1600 C.3       1 SUB1       -0.018
     28 C28         7.3720    0.9000   12.9760 C.ar      1 SUB1       -0.041
     29 C29         7.4010    2.1660   12.4260 C.ar      1 SUB1       -0.060
     30 C30         7.9490    2.3680   11.1710 C.ar      1 SUB1       -0.069
     31 C31         8.4650    1.3190   10.4460 C.ar      1 SUB1       -0.069
     32 C32         8.4370    0.0660   10.9930 C.ar      1 SUB1       -0.069
     33 C33         7.8990   -0.1460   12.2450 C.ar      1 SUB1       -0.060
     34 N1          7.9070    1.4590    5.4270 N.ar      1 SUB1       -0.301
     35 N2          3.9550    2.3840   10.8930 N.am      1 SUB1       -0.263
     36 N3          4.4960    0.9820   13.4920 N.am      1 SUB1       -0.275
     37 N4          4.7420   -2.5650   16.0640 N.am      1 SUB1       -0.239
     38 N5          7.6370   -4.5750   16.4030 N.am      1 SUB1       -0.280
     39 O1          5.2350    3.7910    9.0820 O.3       1 SUB1       -0.290
     40 O2          4.9490    0.9340   16.4270 O.3       1 SUB1       -0.369
     41 O3          3.3270    4.2970   11.8520 O.2       1 SUB1       -0.394
     42 O4          6.3240   -1.2340   17.0450 O.2       1 SUB1       -0.394
     43 O5          6.7460   -3.5740   14.5880 O.2       1 SUB1       -0.394
     44 O6          3.7580   -0.6290   12.1110 O.2       1 SUB1       -0.394
     45 S1          0.6680    0.4350   11.9930 S.3       1 SUB1       -0.159
     46 S2          3.2630   -4.4400   14.9730 S.3       1 SUB1       -0.132
     47 H11         6.3666    0.2230    5.9989 H         1 SUB1        0.075
     48 H21         5.4281    1.7051    7.6749 H         1 SUB1        0.072
     49 H51         9.3364    2.9191    5.0550 H         1 SUB1        0.084
     50 H71         6.6259    6.0910    9.2565 H         1 SUB1        0.054
     51 H81         8.5903    6.6729    7.9348 H         1 SUB1        0.061
     52 H91         9.5031    5.1212    6.2370 H         1 SUB1        0.053
     53 H101        4.8949    5.4427   10.2526 H         1 SUB1        0.086
     54 H102        6.0969    4.2663   10.8835 H         1 SUB1        0.086
     55 H121        2.3393    0.1546   10.2542 H         1 SUB1        0.042
     56 H122        1.5333    1.7565   10.1490 H         1 SUB1        0.042
     57 H141        5.4093   -0.8823   13.7480 H         1 SUB1        0.063
     58 H151        3.6236   -0.3430   15.5235 H         1 SUB1        0.086
     59 H161        7.4144   -0.0595   14.8874 H         1 SUB1        0.045
     60 H162        6.7449    1.6073   14.8949 H         1 SUB1        0.045
     61 H181        5.5959   -3.7617   17.5816 H         1 SUB1        0.081
     62 H191        4.9911   -5.8709   15.9100 H         1 SUB1        0.043
     63 H192        3.8846   -5.2477   17.1805 H         1 SUB1        0.043
     64 H201        3.7098   -2.1622   14.2593 H         1 SUB1        0.064
     65 H202        2.6814   -2.2075   15.7314 H         1 SUB1        0.064
     66 H231       10.5850   -3.3417   15.1646 H         1 SUB1        0.025
     67 H232        9.5511   -2.6162   16.4417 H         1 SUB1        0.025
     68 H233        8.9216   -2.7916   14.7685 H         1 SUB1        0.025
     69 H241       10.1340   -5.5998   14.3126 H         1 SUB1        0.025
     70 H242        8.4394   -5.1891   13.8813 H         1 SUB1        0.025
     71 H243        8.7781   -6.5792   14.9674 H         1 SUB1        0.025
     72 H251       10.9245   -5.2486   16.6822 H         1 SUB1        0.025
     73 H252        9.5239   -6.1836   17.3073 H         1 SUB1        0.025
     74 H253        9.8176   -4.5095   17.8884 H         1 SUB1        0.025
     75 H261        2.5498    2.2745   12.4243 H         1 SUB1        0.081
     76 H271       -1.0101    1.9640   12.8495 H         1 SUB1        0.034
     77 H272       -0.5177    2.3875   11.1748 H         1 SUB1        0.034
     78 H273        0.5564    2.7925   12.5564 H         1 SUB1        0.034
     79 H291        6.9933    3.0046   12.9788 H         1 SUB1        0.056
     80 H301        7.9719    3.3680   10.7532 H         1 SUB1        0.060
     81 H311        8.8856    1.4824    9.4604 H         1 SUB1        0.056
     82 H321        8.8426   -0.7707   10.4358 H         1 SUB1        0.060
     83 H331        7.8898   -1.1471   12.6607 H         1 SUB1        0.056
     84 H351        4.5040    1.9409   10.1843 H         1 SUB1        0.188
     85 H361        4.4480    1.9491   13.7420 H         1 SUB1        0.186
     86 H381        7.4334   -4.9979   17.2860 H         1 SUB1        0.186
     87 H401        5.8867    1.0578   16.5164 H         1 SUB1        0.213
@<TRIPOS>BOND
     1    1   34 ar 
     2    1    2 ar 
     3    2    3 ar 
     4    3    6 ar 
     5    3    4 ar 
     6    4    9 ar 
     7    4    5 ar 
     8    5   34 ar 
     9    9    8 ar 
    10    8    7 ar 
    11    7    6 ar 
    12    6   39 1  
    13   39   10 1  
    14   10   11 1  
    15   11   41 2  
    16   11   35 am 
    17   35   26 1  
    18   26   13 1  
    19   26   12 1  
    20   12   45 1  
    21   45   27 1  
    22   13   36 am 
    23   13   44 2  
    24   36   14 1  
    25   14   16 1  
    26   14   15 1  
    27   15   40 1  
    28   15   17 1  
    29   17   37 am 
    30   17   42 2  
    31   37   18 1  
    32   37   20 1  
    33   20   46 1  
    34   46   19 1  
    35   19   18 1  
    36   18   21 1  
    37   21   38 am 
    38   21   43 2  
    39   38   22 1  
    40   22   25 1  
    41   22   24 1  
    42   22   23 1  
    43   16   28 1  
    44   28   33 ar 
    45   28   29 ar 
    46   29   30 ar 
    47   30   31 ar 
    48   31   32 ar 
    49   32   33 ar 
    50    1   47 1  
    51    2   48 1  
    52    5   49 1  
    53    7   50 1  
    54    8   51 1  
    55    9   52 1  
    56   10   53 1  
    57   10   54 1  
    58   12   55 1  
    59   12   56 1  
    60   14   57 1  
    61   15   58 1  
    62   16   59 1  
    63   16   60 1  
    64   18   61 1  
    65   19   62 1  
    66   19   63 1  
    67   20   64 1  
    68   20   65 1  
    69   23   66 1  
    70   23   67 1  
    71   23   68 1  
    72   24   69 1  
    73   24   70 1  
    74   24   71 1  
    75   25   72 1  
    76   25   73 1  
    77   25   74 1  
    78   26   75 1  
    79   27   76 1  
    80   27   77 1  
    81   27   78 1  
    82   29   79 1  
    83   30   80 1  
    84   31   81 1  
    85   32   82 1  
    86   33   83 1  
    87   35   84 1  
    88   36   85 1  
    89   38   86 1  
    90   40   87 1  
@<TRIPOS>SUBSTRUCTURE
     1 SUB1        1 GROUP

