### 
### Created by X-TOOL on Tue Oct 25 02:06:53 2005
### 

@<TRIPOS>MOLECULE
1tcw_ligand
   81    83     1     0     0
SMALL
GAST_HUCK


@<TRIPOS>ATOM
      1 C1         65.6370   22.3890   28.2640 C.3       1 SUB1        0.090
      2 C2         66.4690   22.3900   29.5510 C.3       1 SUB1       -0.032
      3 C3         64.9440   23.7470   28.1780 C.3       1 SUB1       -0.032
      4 C4         66.5690   22.2510   27.0450 C.3       1 SUB1       -0.032
      5 C5         63.4510   21.2840   27.7980 C.2       1 SUB1        0.320
      6 C6         62.0830   21.3250   25.7240 C.3       1 SUB1        0.079
      7 C7         61.9880   22.4480   24.6670 C.3       1 SUB1        0.006
      8 C8         60.6020   23.0890   24.6590 C.ar      1 SUB1       -0.041
      9 C9         60.0290   23.5620   25.8610 C.ar      1 SUB1       -0.060
     10 C10        58.7370   24.1140   25.8670 C.ar      1 SUB1       -0.069
     11 C11        58.0150   24.1990   24.6770 C.ar      1 SUB1       -0.069
     12 C12        58.5790   23.7350   23.4860 C.ar      1 SUB1       -0.069
     13 C13        59.8660   23.1830   23.4720 C.ar      1 SUB1       -0.060
     14 C14        61.8830   19.9970   25.0350 C.3       1 SUB1        0.082
     15 C15        62.4620   19.7030   23.6640 C.3       1 SUB1       -0.003
     16 C16        61.9020   18.3270   23.3700 C.3       1 SUB1        0.061
     17 C17        61.3720   18.1750   21.9860 C.3       1 SUB1        0.001
     18 C18        62.1540   18.5930   20.8150 C.ar      1 SUB1       -0.041
     19 C19        63.0280   17.6860   20.2520 C.ar      1 SUB1       -0.060
     20 C20        63.6660   18.0540   19.0690 C.ar      1 SUB1       -0.069
     21 C21        63.4180   19.3030   18.4860 C.ar      1 SUB1       -0.069
     22 C22        62.5310   20.2060   19.0850 C.ar      1 SUB1       -0.069
     23 C23        61.8930   19.8490   20.2640 C.ar      1 SUB1       -0.060
     24 C24        62.7460   17.1140   23.5930 C.2       1 SUB1        0.184
     25 C25        62.5800   14.9710   24.5610 C.3       1 SUB1        0.119
     26 C26        62.6790   14.9710   26.1200 C.3       1 SUB1       -0.008
     27 C27        63.6280   13.8950   26.5310 C.3       1 SUB1       -0.058
     28 C28        63.3690   16.2190   26.6700 C.3       1 SUB1       -0.058
     29 C29        61.7940   13.8380   23.9510 C.2       1 SUB1        0.138
     30 C30        61.5510   12.2910   22.4790 C.2       1 SUB1        0.025
     31 C31        60.4080   12.4230   23.2800 C.2       1 SUB1       -0.037
     32 N1         63.3410   21.3520   26.4480 N.am      1 SUB1       -0.255
     33 N2         61.9740   16.2250   24.1970 N.am      1 SUB1       -0.266
     34 N3         62.4300   13.2360   22.9460 N.pl3     1 SUB1       -0.263
     35 N4         60.5870   13.4280   24.2190 N.2       1 SUB1       -0.337
     36 O1         64.7250   21.3180   28.3790 O.3       1 SUB1       -0.258
     37 O2         62.5170   21.1780   28.6050 O.2       1 SUB1       -0.377
     38 O3         60.4760   19.7980   24.9850 O.3       1 SUB1       -0.389
     39 O4         63.9440   16.9470   23.3270 O.2       1 SUB1       -0.396
     40 H21        67.2007   23.2105   29.5139 H         1 SUB1        0.026
     41 H22        66.9986   21.4306   29.6460 H         1 SUB1        0.026
     42 H23        65.8050   22.5297   30.4168 H         1 SUB1        0.026
     43 H31        65.7012   24.5401   28.0902 H         1 SUB1        0.026
     44 H32        64.3448   23.9111   29.0858 H         1 SUB1        0.026
     45 H33        64.2869   23.7682   27.2961 H         1 SUB1        0.026
     46 H41        67.2541   23.1108   27.0081 H         1 SUB1        0.026
     47 H42        65.9672   22.2219   26.1247 H         1 SUB1        0.026
     48 H43        67.1512   21.3218   27.1319 H         1 SUB1        0.026
     49 H61        61.2717   21.4673   26.4530 H         1 SUB1        0.060
     50 H71        62.1913   22.0225   23.6732 H         1 SUB1        0.045
     51 H72        62.7379   23.2195   24.8959 H         1 SUB1        0.045
     52 H91        60.5908   23.4984   26.7859 H         1 SUB1        0.056
     53 H101       58.3030   24.4725   26.7934 H         1 SUB1        0.060
     54 H111       57.0179   24.6243   24.6761 H         1 SUB1        0.056
     55 H121       58.0145   23.8030   22.5631 H         1 SUB1        0.060
     56 H131       60.2927   22.8281   22.5409 H         1 SUB1        0.056
     57 H141       62.3215   19.2419   25.7040 H         1 SUB1        0.062
     58 H151       63.5616   19.6891   23.6898 H         1 SUB1        0.032
     59 H152       62.1219   20.4393   22.9209 H         1 SUB1        0.032
     60 H161       61.0482   18.2304   24.0567 H         1 SUB1        0.056
     61 H171       60.4310   18.7434   21.9498 H         1 SUB1        0.045
     62 H172       61.1591   17.1043   21.8509 H         1 SUB1        0.045
     63 H191       63.2117   16.7223   20.7131 H         1 SUB1        0.056
     64 H201       64.3597   17.3681   18.5963 H         1 SUB1        0.060
     65 H211       63.9173   19.5732   17.5625 H         1 SUB1        0.056
     66 H221       62.3450   21.1733   18.6324 H         1 SUB1        0.060
     67 H231       61.2048   20.5323   20.7483 H         1 SUB1        0.056
     68 H251       63.6003   14.9243   24.1527 H         1 SUB1        0.080
     69 H261       61.6803   14.8378   26.5615 H         1 SUB1        0.034
     70 H271       63.7114   13.8790   27.6277 H         1 SUB1        0.023
     71 H272       64.6170   14.0905   26.0909 H         1 SUB1        0.023
     72 H273       63.2551   12.9224   26.1774 H         1 SUB1        0.023
     73 H281       62.7643   17.1068   26.4331 H         1 SUB1        0.023
     74 H282       64.3638   16.3201   26.2116 H         1 SUB1        0.023
     75 H283       63.4754   16.1284   27.7611 H         1 SUB1        0.023
     76 H301       61.7078   11.5890   21.6614 H         1 SUB1        0.079
     77 H311       59.5062   11.8210   23.1791 H         1 SUB1        0.041
     78 H321       64.1839   21.4258   25.9150 H         1 SUB1        0.187
     79 H331       61.0120   16.4159   24.3920 H         1 SUB1        0.189
     80 H341       63.3774   13.4368   22.5953 H         1 SUB1        0.237
     81 H381       60.2894   18.9702   24.5579 H         1 SUB1        0.210
@<TRIPOS>BOND
     1    1   36 1  
     2    1    4 1  
     3    1    3 1  
     4    1    2 1  
     5   36    5 1  
     6    5   37 2  
     7    5   32 am 
     8   32    6 1  
     9    6   14 1  
    10    6    7 1  
    11    7    8 1  
    12    8   13 ar 
    13    8    9 ar 
    14    9   10 ar 
    15   10   11 ar 
    16   11   12 ar 
    17   12   13 ar 
    18   14   38 1  
    19   14   15 1  
    20   15   16 1  
    21   16   24 1  
    22   16   17 1  
    23   17   18 1  
    24   18   23 ar 
    25   18   19 ar 
    26   19   20 ar 
    27   20   21 ar 
    28   21   22 ar 
    29   22   23 ar 
    30   24   39 2  
    31   24   33 am 
    32   33   25 1  
    33   25   29 1  
    34   25   26 1  
    35   26   28 1  
    36   26   27 1  
    37   29   35 2  
    38   29   34 1  
    39   34   30 1  
    40   30   31 2  
    41   31   35 1  
    42    2   40 1  
    43    2   41 1  
    44    2   42 1  
    45    3   43 1  
    46    3   44 1  
    47    3   45 1  
    48    4   46 1  
    49    4   47 1  
    50    4   48 1  
    51    6   49 1  
    52    7   50 1  
    53    7   51 1  
    54    9   52 1  
    55   10   53 1  
    56   11   54 1  
    57   12   55 1  
    58   13   56 1  
    59   14   57 1  
    60   15   58 1  
    61   15   59 1  
    62   16   60 1  
    63   17   61 1  
    64   17   62 1  
    65   19   63 1  
    66   20   64 1  
    67   21   65 1  
    68   22   66 1  
    69   23   67 1  
    70   25   68 1  
    71   26   69 1  
    72   27   70 1  
    73   27   71 1  
    74   27   72 1  
    75   28   73 1  
    76   28   74 1  
    77   28   75 1  
    78   30   76 1  
    79   31   77 1  
    80   32   78 1  
    81   33   79 1  
    82   34   80 1  
    83   38   81 1  
@<TRIPOS>SUBSTRUCTURE
     1 SUB1        1 GROUP

