### 
### Created by X-TOOL on Mon Oct 24 22:39:33 2005
### 

@<TRIPOS>MOLECULE
1ele_ligand
   48    48     1     0     0
SMALL
GAST_HUCK


@<TRIPOS>ATOM
      1 C1         40.8590   23.4540   37.6320 C.2       1 SUB1        0.303
      2 C2         41.3060   24.6440   38.5650 C.3       1 SUB1        0.475
      3 O          40.2220   23.6390   36.5760 O.2       1 SUB1       -0.335
      4 F1         41.9710   24.3170   39.6950 F         1 SUB1       -0.170
      5 F2         42.1280   25.5110   37.9410 F         1 SUB1       -0.170
      6 F3         40.2340   25.3420   38.9410 F         1 SUB1       -0.170
      7 N          41.1110   22.2030   38.0830 N.am      1 SUB1       -0.257
      8 CA         40.8200   21.0120   37.3320 C.3       1 SUB1        0.134
      9 C          39.2950   20.8540   37.3190 C.2       1 SUB1        0.204
     10 O          38.6170   21.1530   38.3050 O.2       1 SUB1       -0.394
     11 CB         41.6940   19.9010   38.0520 C.3       1 SUB1       -0.006
     12 CG1        41.0330   19.3510   39.2860 C.3       1 SUB1       -0.058
     13 CG2        42.0020   18.8020   37.0560 C.3       1 SUB1       -0.058
     14 N          38.7360   20.5480   36.1290 N.am      1 SUB1       -0.263
     15 CA         37.2910   20.3340   36.0160 C.3       1 SUB1        0.138
     16 C          37.0260   18.9830   36.6670 C.2       1 SUB1        0.246
     17 O          37.4970   17.9290   36.2080 O.2       1 SUB1       -0.372
     18 CB         36.8060   20.2580   34.5640 C.3       1 SUB1       -0.023
     19 N          36.3390   19.2080   37.8080 N.am      1 SUB1       -0.206
     20 C1         36.0000   18.2370   38.6900 C.ar      1 SUB1        0.110
     21 C2         35.3850   18.6370   39.8610 C.ar      1 SUB1       -0.004
     22 C3         35.0570   17.7240   40.8230 C.ar      1 SUB1       -0.044
     23 C4         35.3420   16.3720   40.6360 C.ar      1 SUB1        0.021
     24 C5         35.9500   15.9680   39.4500 C.ar      1 SUB1       -0.044
     25 C6         36.2750   16.8880   38.4890 C.ar      1 SUB1       -0.004
     26 C7         35.0370   15.3260   41.7800 C.3       1 SUB1        0.350
     27 F1         35.4180   14.0140   41.6140 F         1 SUB1       -0.244
     28 F2         35.6500   15.7270   42.8940 F         1 SUB1       -0.244
     29 F3         33.7330   15.3160   42.0820 F         1 SUB1       -0.244
     30 H71        41.5224   22.1015   38.9888 H         1 SUB1        0.189
     31 H81        41.1607   21.1074   36.2905 H         1 SUB1        0.080
     32 H111       42.6432   20.3624   38.3621 H         1 SUB1        0.034
     33 H121       40.8739   20.1638   40.0099 H         1 SUB1        0.023
     34 H122       41.6776   18.5810   39.7350 H         1 SUB1        0.023
     35 H123       40.0641   18.9059   39.0156 H         1 SUB1        0.023
     36 H131       41.0618   18.3536   36.7024 H         1 SUB1        0.023
     37 H132       42.6170   18.0295   37.5408 H         1 SUB1        0.023
     38 H133       42.5508   19.2247   36.2016 H         1 SUB1        0.023
     39 H141       39.3137   20.4666   35.3168 H         1 SUB1        0.188
     40 H151       36.7518   21.1365   36.5407 H         1 SUB1        0.081
     41 H181       37.3074   19.4227   34.0532 H         1 SUB1        0.028
     42 H182       37.0446   21.1997   34.0479 H         1 SUB1        0.028
     43 H183       35.7180   20.0971   34.5488 H         1 SUB1        0.028
     44 H191       36.0642   20.1472   38.0140 H         1 SUB1        0.249
     45 H211       35.1605   19.6858   40.0179 H         1 SUB1        0.063
     46 H221       34.5730   18.0522   41.7358 H         1 SUB1        0.080
     47 H241       36.1674   14.9187   39.2865 H         1 SUB1        0.080
     48 H251       36.7479   16.5642   37.5689 H         1 SUB1        0.063
@<TRIPOS>BOND
     1    1    3 2  
     2    1    2 1  
     3    2    6 1  
     4    2    5 1  
     5    2    4 1  
     6    9    8 1  
     7    8   11 1  
     8    8    7 1  
     9   11   12 1  
    10   11   13 1  
    11    9   10 2  
    12   16   15 1  
    13   15   18 1  
    14   15   14 1  
    15   16   17 2  
    16   19   20 1  
    17   20   25 ar 
    18   20   21 ar 
    19   21   22 ar 
    20   22   23 ar 
    21   23   26 1  
    22   24   23 ar 
    23   25   24 ar 
    24   26   29 1  
    25   26   28 1  
    26   26   27 1  
    27   14    9 am 
    28    7    1 am 
    29   16   19 am 
    30    7   30 1  
    31    8   31 1  
    32   11   32 1  
    33   12   33 1  
    34   12   34 1  
    35   12   35 1  
    36   13   36 1  
    37   13   37 1  
    38   13   38 1  
    39   14   39 1  
    40   15   40 1  
    41   18   41 1  
    42   18   42 1  
    43   18   43 1  
    44   19   44 1  
    45   21   45 1  
    46   22   46 1  
    47   24   47 1  
    48   25   48 1  
@<TRIPOS>SUBSTRUCTURE
     1 SUB1        1 GROUP

