### 
### Created by X-TOOL on Mon Oct 24 21:52:38 2005
### 

@<TRIPOS>MOLECULE
1gvw_ligand
   96    97     1     0     0
SMALL
GAST_HUCK


@<TRIPOS>ATOM
      1 O1          1.5530   27.3940   20.2800 O.2       1 SUB1       -0.377
      2 C           2.3520   26.5920   19.7950 C.2       1 SUB1        0.322
      3 O2          2.1280   25.1820   19.8390 O.3       1 SUB1       -0.258
      4 CT          1.0100   24.5180   20.4580 C.3       1 SUB1        0.090
      5 C1          0.9900   24.7250   21.9700 C.3       1 SUB1       -0.032
      6 C2          1.2510   23.0180   20.2280 C.3       1 SUB1       -0.032
      7 C3         -0.2510   24.9630   19.7170 C.3       1 SUB1       -0.032
      8 N           3.5200   26.8240   19.1780 N.am      1 SUB1       -0.239
      9 CA          3.9840   28.2080   18.8460 C.3       1 SUB1        0.142
     10 C           3.1090   28.7590   17.6920 C.2       1 SUB1        0.206
     11 O           2.8090   27.9390   16.7710 O.2       1 SUB1       -0.394
     12 CB          5.4640   28.2240   18.5110 C.3       1 SUB1        0.021
     13 CG          6.5420   28.0500   19.5410 C.ar      1 SUB1       -0.039
     14 CD1         6.6930   26.8970   20.3010 C.ar      1 SUB1       -0.060
     15 CD2         7.4930   29.0520   19.7780 C.ar      1 SUB1       -0.060
     16 CE1         7.6800   26.7200   21.2360 C.ar      1 SUB1       -0.069
     17 CE2         8.4650   28.8950   20.7450 C.ar      1 SUB1       -0.069
     18 CZ          8.5790   27.7350   21.4930 C.ar      1 SUB1       -0.069
     19 N           2.7830   30.0750   17.7310 N.am      1 SUB1       -0.262
     20 CA          2.1250   30.7490   16.5920 C.3       1 SUB1        0.142
     21 C           2.8970   32.0560   16.3470 C.2       1 SUB1        0.204
     22 O           2.4620   33.0960   16.8710 O.2       1 SUB1       -0.394
     23 CB          0.6450   31.0910   16.7390 C.3       1 SUB1        0.043
     24 CG         -0.0190   31.7110   15.5380 C.2       1 SUB1        0.056
     25 ND1        -1.3170   32.2810   15.5690 N.pl3     1 SUB1       -0.262
     26 CD2         0.3820   31.8430   14.2450 C.2       1 SUB1       -0.028
     27 CE1        -1.6400   32.7380   14.3650 C.2       1 SUB1        0.087
     28 NE2        -0.6090   32.4860   13.5360 N.2       1 SUB1       -0.344
     29 N           3.9680   32.0010   15.5460 N.am      1 SUB1       -0.276
     30 CA          4.8820   33.0780   15.2090 C.3       1 SUB1        0.080
     31 CB          6.3350   32.9230   15.7760 C.3       1 SUB1       -0.022
     32 CG          6.4840   32.5500   17.2740 C.3       1 SUB1       -0.044
     33 CD1         7.9850   32.3040   17.5850 C.3       1 SUB1       -0.063
     34 CD2         5.8460   33.5500   18.2210 C.3       1 SUB1       -0.063
     35 P           4.8910   33.4070   13.4150 P.3       1 SUB1        0.043
     36 O1P         5.1300   32.1100   12.7550 O.co2     1 SUB1       -0.551
     37 O2P         5.9260   34.4770   13.0940 O.co2     1 SUB1       -0.551
     38 CM          3.3150   34.1150   12.9120 C.3       1 SUB1        0.075
     39 C           3.1360   35.5610   13.3240 C.2       1 SUB1        0.182
     40 O           2.6010   35.7980   14.4070 O.2       1 SUB1       -0.397
     41 N           3.5830   36.5370   12.4910 N.am      1 SUB1       -0.286
     42 CA          3.6210   37.9040   12.9790 C.3       1 SUB1        0.033
     43 CB          3.7910   38.9920   11.9560 C.3       1 SUB1       -0.024
     44 CG1         3.9970   40.3750   12.5990 C.3       1 SUB1       -0.052
     45 CG2         2.5770   38.9860   11.0550 C.3       1 SUB1       -0.061
     46 CD1         4.7160   41.2880   11.6660 C.3       1 SUB1       -0.065
     47 H81         4.0997   26.0473   18.9317 H         1 SUB1        0.190
     48 H91         3.8332   28.8477   19.7280 H         1 SUB1        0.082
     49 H121        5.6554   29.1970   18.0349 H         1 SUB1        0.047
     50 H122        5.6160   27.4200   17.7759 H         1 SUB1        0.047
     51 H141        5.9879   26.0885   20.1454 H         1 SUB1        0.056
     52 H151        7.4646   29.9641   19.1929 H         1 SUB1        0.056
     53 H161        7.7543   25.7818   21.7739 H         1 SUB1        0.060
     54 H171        9.1617   29.7057   20.9249 H         1 SUB1        0.060
     55 H181        9.3457   27.6283   22.2519 H         1 SUB1        0.056
     56 H191        2.9937   30.6039   18.5531 H         1 SUB1        0.189
     57 H201        2.2246   30.0935   15.7143 H         1 SUB1        0.082
     58 H231        0.5455   31.7956   17.5779 H         1 SUB1        0.049
     59 H232        0.1080   30.1607   16.9759 H         1 SUB1        0.049
     60 H251       -1.9201   32.3328   16.4024 H         1 SUB1        0.239
     61 H261        1.3307   31.4972   13.8371 H         1 SUB1        0.032
     62 H271       -2.5736   33.2297   14.0955 H         1 SUB1        0.115
     63 H51         0.1228   24.2026   22.4001 H         1 SUB1        0.026
     64 H52         0.9177   25.7999   22.1920 H         1 SUB1        0.026
     65 H53         1.9151   24.3216   22.4076 H         1 SUB1        0.026
     66 H61         0.4292   22.4414   20.6778 H         1 SUB1        0.026
     67 H62         2.2031   22.7239   20.6939 H         1 SUB1        0.026
     68 H63         1.2931   22.8148   19.1478 H         1 SUB1        0.026
     69 H71        -1.1299   24.4746   20.1631 H         1 SUB1        0.026
     70 H72        -0.1727   24.6797   18.6570 H         1 SUB1        0.026
     71 H73        -0.3578   26.0548   19.7978 H         1 SUB1        0.026
     72 H291        4.1618   31.1125   15.1301 H         1 SUB1        0.186
     73 H301        4.4707   33.9787   15.6882 H         1 SUB1        0.062
     74 H311        6.8525   33.8814   15.6223 H         1 SUB1        0.029
     75 H312        6.8352   32.1380   15.1899 H         1 SUB1        0.029
     76 H321        5.9562   31.5969   17.4256 H         1 SUB1        0.030
     77 H331        8.1008   32.0386   18.6462 H         1 SUB1        0.023
     78 H332        8.5584   33.2180   17.3710 H         1 SUB1        0.023
     79 H333        8.3593   31.4811   16.9583 H         1 SUB1        0.023
     80 H341        4.7873   33.6839   17.9540 H         1 SUB1        0.023
     81 H342        6.3688   34.5146   18.1424 H         1 SUB1        0.023
     82 H343        5.9194   33.1762   19.2529 H         1 SUB1        0.023
     83 H381        2.5075   33.5223   13.3666 H         1 SUB1        0.056
     84 H382        3.2417   34.0550   11.8161 H         1 SUB1        0.056
     85 H411        3.8796   36.3184   11.5613 H         1 SUB1        0.185
     86 H421        4.4601   37.9802   13.6862 H         1 SUB1        0.052
     87 H422        2.6761   38.0928   13.5095 H         1 SUB1        0.052
     88 H431        4.6810   38.7650   11.3508 H         1 SUB1        0.032
     89 H441        4.5882   40.2608   13.5195 H         1 SUB1        0.027
     90 H442        3.0164   40.8088   12.8445 H         1 SUB1        0.027
     91 H451        2.4552   37.9872   10.6106 H         1 SUB1        0.023
     92 H452        2.7102   39.7294   10.2552 H         1 SUB1        0.023
     93 H453        1.6823   39.2370   11.6436 H         1 SUB1        0.023
     94 H461        4.8522   42.2688   12.1451 H         1 SUB1        0.023
     95 H462        4.1273   41.4086   10.7446 H         1 SUB1        0.023
     96 H463        5.6992   40.8606   11.4197 H         1 SUB1        0.023
@<TRIPOS>BOND
     1    2    1 2  
     2    2    3 1  
     3    3    4 1  
     4    4    7 1  
     5    4    6 1  
     6    4    5 1  
     7   10    9 1  
     8    9   12 1  
     9    9    8 1  
    10   12   13 1  
    11   13   15 ar 
    12   13   14 ar 
    13   14   16 ar 
    14   16   18 ar 
    15   17   18 ar 
    16   15   17 ar 
    17   10   11 2  
    18   21   20 1  
    19   20   23 1  
    20   20   19 1  
    21   23   24 1  
    22   24   26 2  
    23   24   25 1  
    24   25   27 1  
    25   27   28 2  
    26   26   28 1  
    27   21   22 2  
    28   30   29 1  
    29   35   30 1  
    30   30   31 1  
    31   31   32 1  
    32   32   34 1  
    33   32   33 1  
    34   38   35 1  
    35   35   37 2  
    36   35   36 2  
    37   39   38 1  
    38   39   40 2  
    39   41   42 1  
    40   42   43 1  
    41   43   45 1  
    42   43   44 1  
    43   44   46 1  
    44   19   10 am 
    45    8    2 am 
    46   29   21 am 
    47   39   41 am 
    48    8   47 1  
    49    9   48 1  
    50   12   49 1  
    51   12   50 1  
    52   14   51 1  
    53   15   52 1  
    54   16   53 1  
    55   17   54 1  
    56   18   55 1  
    57   19   56 1  
    58   20   57 1  
    59   23   58 1  
    60   23   59 1  
    61   25   60 1  
    62   26   61 1  
    63   27   62 1  
    64    5   63 1  
    65    5   64 1  
    66    5   65 1  
    67    6   66 1  
    68    6   67 1  
    69    6   68 1  
    70    7   69 1  
    71    7   70 1  
    72    7   71 1  
    73   29   72 1  
    74   30   73 1  
    75   31   74 1  
    76   31   75 1  
    77   32   76 1  
    78   33   77 1  
    79   33   78 1  
    80   33   79 1  
    81   34   80 1  
    82   34   81 1  
    83   34   82 1  
    84   38   83 1  
    85   38   84 1  
    86   41   85 1  
    87   42   86 1  
    88   42   87 1  
    89   43   88 1  
    90   44   89 1  
    91   44   90 1  
    92   45   91 1  
    93   45   92 1  
    94   45   93 1  
    95   46   94 1  
    96   46   95 1  
    97   46   96 1  
@<TRIPOS>SUBSTRUCTURE
     1 SUB1        1 GROUP

