### 
### Created by X-TOOL on Tue Oct 25 02:04:05 2005
### 

@<TRIPOS>MOLECULE
1ai4_ligand
   19    19     1     0     0
SMALL
GAST_HUCK


@<TRIPOS>ATOM
      1 C1         13.8060   37.7840   36.1770 C.2       1 SUB1        0.035
      2 C2         13.5920   36.3210   35.7700 C.3       1 SUB1        0.011
      3 C1'        12.4160   35.9970   34.8980 C.ar      1 SUB1       -0.048
      4 C2'        12.3640   36.6850   33.6940 C.ar      1 SUB1       -0.037
      5 C3'        11.3370   36.4780   32.8090 C.ar      1 SUB1        0.111
      6 O3'        11.0820   37.0600   31.5790 O.3       1 SUB1       -0.338
      7 C4'        10.3460   35.5510   33.1180 C.ar      1 SUB1        0.110
      8 O4'         9.4350   35.4550   32.0850 O.3       1 SUB1       -0.341
      9 C5'        10.3720   34.8500   34.3070 C.ar      1 SUB1       -0.047
     10 C6'        11.4240   35.0560   35.2000 C.ar      1 SUB1       -0.076
     11 O1         14.4450   38.0110   37.1970 O.co2     1 SUB1       -0.567
     12 O2         13.2690   38.7890   35.7080 O.co2     1 SUB1       -0.567
     13 H21        13.4835   35.7366   36.6956 H         1 SUB1        0.063
     14 H22        14.4958   35.9951   35.2344 H         1 SUB1        0.063
     15 H41        13.1455   37.3954   33.4498 H         1 SUB1        0.046
     16 H61        11.0657   36.3870   30.9088 H         1 SUB1        0.244
     17 H81         9.6743   36.0633   31.3957 H         1 SUB1        0.243
     18 H91         9.5825   34.1462   34.5446 H         1 SUB1        0.050
     19 H101       11.4732   34.4902   36.1233 H         1 SUB1        0.045
@<TRIPOS>BOND
     1    1   12 2  
     2    1   11 2  
     3    1    2 1  
     4    2    3 1  
     5    3   10 ar 
     6    3    4 ar 
     7    4    5 ar 
     8    5    7 ar 
     9    5    6 1  
    10    7    9 ar 
    11    7    8 1  
    12    9   10 ar 
    13    2   13 1  
    14    2   14 1  
    15    4   15 1  
    16    6   16 1  
    17    8   17 1  
    18    9   18 1  
    19   10   19 1  
@<TRIPOS>SUBSTRUCTURE
     1 SUB1        1 GROUP

