### 
### Created by X-TOOL on Sun Jun  3 11:15:51 2007
### 

@<TRIPOS>MOLECULE
1zoe_ligand
   23    24     1     0     0
SMALL
GAST_HUCK


@<TRIPOS>ATOM
      1 C2         21.5230    8.7540   19.1040 C.ar      1 SUB1        0.015
      2 C3         21.2850    8.2590   20.4050 C.ar      1 SUB1        0.018
      3 C4         21.9770    7.1270   20.8560 C.ar      1 SUB1        0.044
      4 C5         22.4150    8.1090   18.2350 C.ar      1 SUB1        0.020
      5 N6         23.7040    5.4130   20.1850 N.pl3     1 SUB1       -0.225
      6 C7         23.1510    6.9840   18.7000 C.ar      1 SUB1        0.028
      7 C8         22.8900    6.5180   19.9860 C.ar      1 SUB1        0.092
      8 C13        24.3470    5.1960   19.0140 C.2       1 SUB1        0.219
      9 N14        24.1090    6.2160   18.1670 N.2       1 SUB1       -0.308
     10 N15        25.2790    4.1620   18.9040 N.pl3     1 SUB1       -0.266
     11 C16        25.4880    3.2670   20.0070 C.3       1 SUB1        0.025
     12 C17        25.9890    3.9590   17.6710 C.3       1 SUB1        0.025
     13 BR1        20.4670   10.2030   18.4730 Br        1 SUB1       -0.055
     14 BR9        19.9810    9.0580   21.5580 Br        1 SUB1       -0.055
     15 BR10       21.8520    6.4120   22.6210 Br        1 SUB1       -0.052
     16 BR11       22.9250    8.8690   16.5740 Br        1 SUB1       -0.054
     17 H          23.7993    4.8711   21.0439 H         1 SUB1        0.233
     18 H          25.8226    3.8345   20.8754 H         1 SUB1        0.049
     19 H          24.5534    2.7578   20.2422 H         1 SUB1        0.049
     20 H          26.2461    2.5315   19.7379 H         1 SUB1        0.049
     21 H          25.2760    3.7564   16.8718 H         1 SUB1        0.049
     22 H          26.5610    4.8552   17.4308 H         1 SUB1        0.049
     23 H          26.6665    3.1119   17.7786 H         1 SUB1        0.049
@<TRIPOS>BOND
     1    1    2 ar 
     2    1    4 ar 
     3    1   13 1  
     4    2    3 ar 
     5    2   14 1  
     6    3    7 ar 
     7    3   15 1  
     8    4    6 ar 
     9    4   16 1  
    10    7    5 1  
    11    5    8 1  
    12    6    7 ar 
    13    6    9 1  
    14    8    9 2  
    15    8   10 1  
    16   10   11 1  
    17   10   12 1  
    18    5   17 1  
    19   11   18 1  
    20   11   19 1  
    21   11   20 1  
    22   12   21 1  
    23   12   22 1  
    24   12   23 1  
@<TRIPOS>SUBSTRUCTURE
     1 SUB1        1 GROUP

