1zoe_ligand
  -I-interpret- 

 23 24  0  0  0  0  0  0  0  0999 V2000
   21.5230    8.7540   19.1040 C   0  0  0  0  0
   21.2850    8.2590   20.4050 C   0  0  0  0  0
   21.9770    7.1270   20.8560 C   0  0  0  0  0
   22.4150    8.1090   18.2350 C   0  0  0  0  0
   23.7040    5.4130   20.1850 N   0  0  0  0  0
   23.1510    6.9840   18.7000 C   0  0  0  0  0
   22.8900    6.5180   19.9860 C   0  0  0  0  0
   24.3470    5.1960   19.0140 C   0  0  0  0  0
   24.1090    6.2160   18.1670 N   0  0  0  0  0
   25.2790    4.1620   18.9040 N   0  0  0  0  0
   25.4880    3.2670   20.0070 C   0  0  0  0  0
   25.9890    3.9590   17.6710 C   0  0  0  0  0
   20.4670   10.2030   18.4730 Br  0  0  0  0  0
   19.9810    9.0580   21.5580 Br  0  0  0  0  0
   21.8520    6.4120   22.6210 Br  0  0  0  0  0
   22.9250    8.8690   16.5740 Br  0  0  0  0  0
   23.7993    4.8711   21.0439 H   0  0  0  0  0
   25.8226    3.8345   20.8754 H   0  0  0  0  0
   24.5534    2.7578   20.2422 H   0  0  0  0  0
   26.2461    2.5315   19.7379 H   0  0  0  0  0
   25.2760    3.7564   16.8718 H   0  0  0  0  0
   26.5610    4.8552   17.4308 H   0  0  0  0  0
   26.6665    3.1119   17.7786 H   0  0  0  0  0
  1  2  4  0  0  0
  1  4  4  0  0  0
  1 13  1  0  0  0
  2  3  4  0  0  0
  2 14  1  0  0  0
  3  7  4  0  0  0
  3 15  1  0  0  0
  4  6  4  0  0  0
  4 16  1  0  0  0
  7  5  1  0  0  0
  5  8  1  0  0  0
  6  7  4  0  0  0
  6  9  1  0  0  0
  8  9  2  0  0  0
  8 10  1  0  0  0
 10 11  1  0  0  0
 10 12  1  0  0  0
  5 17  1  0  0  0
 11 18  1  0  0  0
 11 19  1  0  0  0
 11 20  1  0  0  0
 12 21  1  0  0  0
 12 22  1  0  0  0
 12 23  1  0  0  0
M  END
$$$$
