1nc1_ligand
  -I-interpret- 

 36 38  0  0  0  0  0  0  0  0999 V2000
   56.1220   68.5800   22.5810 C   0  0  0  0  0
   55.5060   70.2220   23.1270 S   0  0  0  0  0
   56.1640   71.2620   21.7830 C   0  0  0  0  0
   57.6240   71.6620   21.9930 C   0  0  0  0  0
   58.1860   72.1790   20.7460 O   0  0  0  0  0
   57.6370   74.0500   22.0740 C   0  0  0  0  0
   58.4560   75.1950   22.4790 O   0  0  0  0  0
   57.8490   72.7630   23.0050 C   0  0  0  0  0
   59.2470   72.6590   23.4810 O   0  0  0  0  0
   57.9320   73.6160   20.5860 C   0  0  0  0  0
   56.7560   73.7550   19.5220 N   0  0  0  0  0
   56.8850   73.4570   18.1670 C   0  0  0  0  0
   55.7740   73.6300   17.4720 C   0  0  0  0  0
   54.8540   74.0650   18.4100 C   0  0  0  0  0
   53.4720   74.4260   18.3490 C   0  0  0  0  0
   52.7670   74.3890   17.2120 N   0  0  0  0  0
   52.8650   74.8210   19.5290 N   0  0  0  0  0
   53.5650   74.8590   20.6740 C   0  0  0  0  0
   54.8660   74.5410   20.8430 N   0  0  0  0  0
   55.4440   74.1530   19.6710 C   0  0  0  0  0
   55.8009   67.8178   23.3062 H   0  0  0  0  0
   55.7056   68.3326   21.5934 H   0  0  0  0  0
   57.2209   68.5885   22.5333 H   0  0  0  0  0
   56.0976   70.7055   20.8365 H   0  0  0  0  0
   55.5659   72.1829   21.7194 H   0  0  0  0  0
   58.1814   70.7733   22.3237 H   0  0  0  0  0
   56.5817   74.3547   22.1319 H   0  0  0  0  0
   59.3746   74.9568   22.4361 H   0  0  0  0  0
   57.1537   72.7309   23.8567 H   0  0  0  0  0
   59.4673   73.4337   23.9848 H   0  0  0  0  0
   58.8070   74.1585   20.1987 H   0  0  0  0  0
   57.8169   73.1127   17.7209 H   0  0  0  0  0
   55.6184   73.4676   16.4065 H   0  0  0  0  0
   51.7727   74.6578   17.2136 H   0  0  0  0  0
   53.2187   74.0917   16.3354 H   0  0  0  0  0
   53.0271   75.1798   21.5588 H   0  0  0  0  0
  2  1  1  0  0  0
  3  2  1  0  0  0
  4  3  1  0  0  0
  4  5  1  0  0  0
  8  4  1  0  0  0
  5 10  1  0  0  0
  6  7  1  0  0  0
  8  6  1  0  0  0
  6 10  1  0  0  0
  8  9  1  0  0  0
 10 11  1  0  0  0
 11 12  1  0  0  0
 11 20  1  0  0  0
 12 13  2  0  0  0
 13 14  1  0  0  0
 14 15  4  0  0  0
 14 20  4  0  0  0
 15 16  1  0  0  0
 15 17  4  0  0  0
 17 18  4  0  0  0
 18 19  4  0  0  0
 19 20  4  0  0  0
  1 21  1  0  0  0
  1 22  1  0  0  0
  1 23  1  0  0  0
  3 24  1  0  0  0
  3 25  1  0  0  0
  4 26  1  0  0  0
  6 27  1  0  0  0
  7 28  1  0  0  0
  8 29  1  0  0  0
  9 30  1  0  0  0
 10 31  1  0  0  0
 12 32  1  0  0  0
 13 33  1  0  0  0
 16 34  1  0  0  0
 16 35  1  0  0  0
 18 36  1  0  0  0
M  END
$$$$
