### 
### Created by X-TOOL on Tue Oct 25 00:08:59 2005
### 

@<TRIPOS>MOLECULE
1nc1_ligand
   36    38     1     0     0
SMALL
GAST_HUCK


@<TRIPOS>ATOM
      1 CS         56.1220   68.5800   22.5810 C.3       1 SUB1       -0.018
      2 S5'        55.5060   70.2220   23.1270 S.3       1 SUB1       -0.162
      3 C5'        56.1640   71.2620   21.7830 C.3       1 SUB1        0.022
      4 C4'        57.6240   71.6620   21.9930 C.3       1 SUB1        0.100
      5 O4'        58.1860   72.1790   20.7460 O.3       1 SUB1       -0.339
      6 C2'        57.6370   74.0500   22.0740 C.3       1 SUB1        0.138
      7 O2'        58.4560   75.1950   22.4790 O.3       1 SUB1       -0.384
      8 C3'        57.8490   72.7630   23.0050 C.3       1 SUB1        0.113
      9 O3'        59.2470   72.6590   23.4810 O.3       1 SUB1       -0.386
     10 C1'        57.9320   73.6160   20.5860 C.3       1 SUB1        0.196
     11 N9         56.7560   73.7550   19.5220 N.pl3     1 SUB1       -0.224
     12 C8         56.8850   73.4570   18.1670 C.2       1 SUB1        0.030
     13 C7         55.7740   73.6300   17.4720 C.2       1 SUB1       -0.054
     14 C5         54.8540   74.0650   18.4100 C.ar      1 SUB1        0.043
     15 C6         53.4720   74.4260   18.3490 C.ar      1 SUB1        0.116
     16 N6         52.7670   74.3890   17.2120 N.pl3     1 SUB1       -0.316
     17 N1         52.8650   74.8210   19.5290 N.ar      1 SUB1       -0.273
     18 C2         53.5650   74.8590   20.6740 C.ar      1 SUB1        0.050
     19 N3         54.8660   74.5410   20.8430 N.ar      1 SUB1       -0.277
     20 C4         55.4440   74.1530   19.6710 C.ar      1 SUB1        0.140
     21 H11        55.8009   67.8178   23.3062 H         1 SUB1        0.034
     22 H12        55.7056   68.3326   21.5934 H         1 SUB1        0.034
     23 H13        57.2209   68.5885   22.5333 H         1 SUB1        0.034
     24 H31        56.0976   70.7055   20.8365 H         1 SUB1        0.040
     25 H32        55.5659   72.1829   21.7194 H         1 SUB1        0.040
     26 H41        58.1814   70.7733   22.3237 H         1 SUB1        0.063
     27 H61        56.5817   74.3547   22.1319 H         1 SUB1        0.068
     28 H71        59.3746   74.9568   22.4361 H         1 SUB1        0.210
     29 H81        57.1537   72.7309   23.8567 H         1 SUB1        0.065
     30 H91        59.4673   73.4337   23.9848 H         1 SUB1        0.210
     31 H101       58.8070   74.1585   20.1987 H         1 SUB1        0.099
     32 H121       57.8169   73.1127   17.7209 H         1 SUB1        0.092
     33 H131       55.6184   73.4676   16.4065 H         1 SUB1        0.031
     34 H161       51.7727   74.6578   17.2136 H         1 SUB1        0.183
     35 H162       53.2187   74.0917   16.3354 H         1 SUB1        0.183
     36 H181       53.0271   75.1798   21.5588 H         1 SUB1        0.097
@<TRIPOS>BOND
     1    2    1 1  
     2    3    2 1  
     3    4    3 1  
     4    4    5 1  
     5    8    4 1  
     6    5   10 1  
     7    6    7 1  
     8    8    6 1  
     9    6   10 1  
    10    8    9 1  
    11   10   11 1  
    12   11   12 1  
    13   11   20 1  
    14   12   13 2  
    15   13   14 1  
    16   14   15 ar 
    17   14   20 ar 
    18   15   16 1  
    19   15   17 ar 
    20   17   18 ar 
    21   18   19 ar 
    22   19   20 ar 
    23    1   21 1  
    24    1   22 1  
    25    1   23 1  
    26    3   24 1  
    27    3   25 1  
    28    4   26 1  
    29    6   27 1  
    30    7   28 1  
    31    8   29 1  
    32    9   30 1  
    33   10   31 1  
    34   12   32 1  
    35   13   33 1  
    36   16   34 1  
    37   16   35 1  
    38   18   36 1  
@<TRIPOS>SUBSTRUCTURE
     1 SUB1        1 GROUP

