2c1p_ligand
  -I-interpret- 

 39 41  0  0  0  0  0  0  0  0999 V2000
   53.9600   43.1820   66.3780 C   0  0  0  0  0
   53.6350   42.3480   65.1270 C   0  0  0  0  0
   54.7240   42.5050   64.0620 C   0  0  0  0  0
   54.2980   41.8520   62.7710 C   0  0  0  0  0
   53.5760   42.5690   61.8070 C   0  0  0  0  0
   53.1390   41.9590   60.6130 C   0  0  0  0  0
   53.4500   40.6260   60.3910 C   0  0  0  0  0
   54.1820   39.8900   61.3190 C   0  0  0  0  0
   54.5960   40.5110   62.5120 C   0  0  0  0  0
   55.3160   42.8550   67.0090 C   0  0  0  0  0
   55.7220   41.5310   67.2640 C   0  0  0  0  0
   56.9980   41.2330   67.7970 C   0  0  0  0  0
   57.8780   42.3020   68.0710 C   0  0  0  0  0
   57.4840   43.6350   67.8560 C   0  0  0  0  0
   56.2050   43.8850   67.3310 C   0  0  0  0  0
   59.2030   42.0370   68.5760 C   0  0  0  0  0
   50.8890   43.0990   68.0360 C   0  0  0  0  0
   52.8040   42.5920   68.6190 C   0  0  0  0  0
   53.5110   40.9660   65.4840 O   0  0  0  0  0
   53.0300   40.0210   59.2360 F   0  0  0  0  0
   60.2530   41.8330   68.9720 N   0  0  0  0  0
   52.8370   43.0320   67.3340 N   0  0  0  0  0
   51.5760   43.3620   66.9520 N   0  0  0  0  0
   51.5800   42.6540   69.0700 N   0  0  0  0  0
   54.0612   44.2259   66.0810 H   0  0  0  0  0
   52.6931   42.7084   64.7135 H   0  0  0  0  0
   55.6373   42.0270   64.4162 H   0  0  0  0  0
   54.8937   43.5667   63.8828 H   0  0  0  0  0
   53.3475   43.6200   61.9839 H   0  0  0  0  0
   52.5670   42.5251   59.8778 H   0  0  0  0  0
   54.4310   38.8469   61.1240 H   0  0  0  0  0
   55.1591   39.9361   63.2472 H   0  0  0  0  0
   55.0347   40.7139   67.0448 H   0  0  0  0  0
   57.2946   40.2023   67.9915 H   0  0  0  0  0
   58.1581   44.4584   68.0922 H   0  0  0  0  0
   55.8951   44.9174   67.1692 H   0  0  0  0  0
   49.8091   43.2394   68.0820 H   0  0  0  0  0
   53.6663   42.2413   69.1861 H   0  0  0  0  0
   52.8280   40.8692   66.1516 H   0  0  0  0  0
  1  2  1  0  0  0
  1 10  1  0  0  0
 22  1  1  0  0  0
  2  3  1  0  0  0
  2 19  1  0  0  0
  3  4  1  0  0  0
  4  5  4  0  0  0
  4  9  4  0  0  0
  5  6  4  0  0  0
  6  7  4  0  0  0
  8  7  4  0  0  0
  7 20  1  0  0  0
  9  8  4  0  0  0
 10 11  4  0  0  0
 10 15  4  0  0  0
 11 12  4  0  0  0
 12 13  4  0  0  0
 14 13  4  0  0  0
 13 16  1  0  0  0
 15 14  4  0  0  0
 16 21  3  0  0  0
 17 23  2  0  0  0
 24 17  1  0  0  0
 18 22  1  0  0  0
 18 24  2  0  0  0
 22 23  1  0  0  0
  1 25  1  0  0  0
  2 26  1  0  0  0
  3 27  1  0  0  0
  3 28  1  0  0  0
  5 29  1  0  0  0
  6 30  1  0  0  0
  8 31  1  0  0  0
  9 32  1  0  0  0
 11 33  1  0  0  0
 12 34  1  0  0  0
 14 35  1  0  0  0
 15 36  1  0  0  0
 17 37  1  0  0  0
 18 38  1  0  0  0
 19 39  1  0  0  0
M  END
$$$$
