### 
### Created by X-TOOL on Sun Jun  3 11:17:43 2007
### 

@<TRIPOS>MOLECULE
2c1p_ligand
   39    41     1     0     0
SMALL
GAST_HUCK


@<TRIPOS>ATOM
      1 C1         53.9600   43.1820   66.3780 C.3       1 SUB1        0.152
      2 C2         53.6350   42.3480   65.1270 C.3       1 SUB1        0.108
      3 C3         54.7240   42.5050   64.0620 C.3       1 SUB1        0.010
      4 C4         54.2980   41.8520   62.7710 C.ar      1 SUB1       -0.044
      5 C5         53.5760   42.5690   61.8070 C.ar      1 SUB1       -0.062
      6 C6         53.1390   41.9590   60.6130 C.ar      1 SUB1       -0.035
      7 C7         53.4500   40.6260   60.3910 C.ar      1 SUB1        0.125
      8 C8         54.1820   39.8900   61.3190 C.ar      1 SUB1       -0.035
      9 C9         54.5960   40.5110   62.5120 C.ar      1 SUB1       -0.062
     10 C10        55.3160   42.8550   67.0090 C.ar      1 SUB1        0.005
     11 C11        55.7220   41.5310   67.2640 C.ar      1 SUB1       -0.045
     12 C12        56.9980   41.2330   67.7970 C.ar      1 SUB1       -0.033
     13 C13        57.8780   42.3020   68.0710 C.ar      1 SUB1        0.088
     14 C14        57.4840   43.6350   67.8560 C.ar      1 SUB1       -0.033
     15 C15        56.2050   43.8850   67.3310 C.ar      1 SUB1       -0.045
     16 C16        59.2030   42.0370   68.5760 C.1       1 SUB1        0.093
     17 C17        50.8890   43.0990   68.0360 C.2       1 SUB1        0.062
     18 C18        52.8040   42.5920   68.6190 C.2       1 SUB1        0.131
     19 O2         53.5110   40.9660   65.4840 O.3       1 SUB1       -0.384
     20 F7         53.0300   40.0210   59.2360 F         1 SUB1       -0.189
     21 N1         60.2530   41.8330   68.9720 N.1       1 SUB1       -0.334
     22 N2         52.8370   43.0320   67.3340 N.pl3     1 SUB1       -0.159
     23 N3         51.5760   43.3620   66.9520 N.2       1 SUB1       -0.188
     24 N4         51.5800   42.6540   69.0700 N.2       1 SUB1       -0.287
     25 H          54.0612   44.2259   66.0810 H         1 SUB1        0.089
     26 H          52.6931   42.7084   64.7135 H         1 SUB1        0.067
     27 H          55.6373   42.0270   64.4162 H         1 SUB1        0.045
     28 H          54.8937   43.5667   63.8828 H         1 SUB1        0.045
     29 H          53.3475   43.6200   61.9839 H         1 SUB1        0.055
     30 H          52.5670   42.5251   59.8778 H         1 SUB1        0.059
     31 H          54.4310   38.8469   61.1240 H         1 SUB1        0.059
     32 H          55.1591   39.9361   63.2472 H         1 SUB1        0.055
     33 H          55.0347   40.7139   67.0448 H         1 SUB1        0.058
     34 H          57.2946   40.2023   67.9915 H         1 SUB1        0.070
     35 H          58.1581   44.4584   68.0922 H         1 SUB1        0.070
     36 H          55.8951   44.9174   67.1692 H         1 SUB1        0.058
     37 H          49.8091   43.2394   68.0820 H         1 SUB1        0.086
     38 H          53.6663   42.2413   69.1861 H         1 SUB1        0.136
     39 H          52.8280   40.8692   66.1516 H         1 SUB1        0.210
@<TRIPOS>BOND
     1    1    2 1  
     2    1   10 1  
     3   22    1 1  
     4    2    3 1  
     5    2   19 1  
     6    3    4 1  
     7    4    5 ar 
     8    4    9 ar 
     9    5    6 ar 
    10    6    7 ar 
    11    8    7 ar 
    12    7   20 1  
    13    9    8 ar 
    14   10   11 ar 
    15   10   15 ar 
    16   11   12 ar 
    17   12   13 ar 
    18   14   13 ar 
    19   13   16 1  
    20   15   14 ar 
    21   16   21 3  
    22   17   23 2  
    23   24   17 1  
    24   18   22 1  
    25   18   24 2  
    26   22   23 1  
    27    1   25 1  
    28    2   26 1  
    29    3   27 1  
    30    3   28 1  
    31    5   29 1  
    32    6   30 1  
    33    8   31 1  
    34    9   32 1  
    35   11   33 1  
    36   12   34 1  
    37   14   35 1  
    38   15   36 1  
    39   17   37 1  
    40   18   38 1  
    41   19   39 1  
@<TRIPOS>SUBSTRUCTURE
     1 SUB1        1 GROUP

