### 
### Created by X-TOOL on Tue Oct 25 01:26:05 2005
### 

@<TRIPOS>MOLECULE
1awi_ligand
  143   152     1     0     0
SMALL
GAST_HUCK


@<TRIPOS>ATOM
      1 N          30.3990   78.5970   38.4640 N.4       1 SUB1        0.246
      2 CA         31.3660   77.5690   38.0550 C.3       1 SUB1        0.067
      3 C          31.0050   76.1880   38.6270 C.2       1 SUB1        0.229
      4 O          31.6040   75.7300   39.6050 O.2       1 SUB1       -0.391
      5 CB         32.6820   78.1050   38.6220 C.3       1 SUB1        0.013
      6 CG         32.2420   78.8430   39.8560 C.3       1 SUB1       -0.005
      7 CD         31.0130   79.5740   39.3810 C.3       1 SUB1       -0.031
      8 N          30.0490   75.4870   37.9850 N.am      1 SUB1       -0.247
      9 CA         29.6000   74.1620   38.4270 C.3       1 SUB1        0.134
     10 C          30.6790   73.0940   38.3910 C.2       1 SUB1        0.207
     11 O          31.7560   73.3020   37.8330 O.2       1 SUB1       -0.394
     12 CB         28.4570   73.8510   37.4610 C.3       1 SUB1       -0.010
     13 CG         28.8910   74.5370   36.2080 C.3       1 SUB1       -0.028
     14 CD         29.4010   75.8620   36.7140 C.3       1 SUB1        0.037
     15 N          30.4340   71.9640   39.0700 N.am      1 SUB1       -0.250
     16 CA         31.3880   70.8540   39.1140 C.3       1 SUB1        0.134
     17 C          31.2980   70.1170   37.7900 C.2       1 SUB1        0.207
     18 O          30.2820   70.1940   37.1000 O.2       1 SUB1       -0.394
     19 CB         30.8470   69.9720   40.2440 C.3       1 SUB1       -0.010
     20 CG         29.9280   70.8850   41.0250 C.3       1 SUB1       -0.028
     21 CD         29.2850   71.6920   39.9450 C.3       1 SUB1        0.037
     22 N          32.3530   69.3860   37.4200 N.am      1 SUB1       -0.250
     23 CA         32.3250   68.6510   36.1580 C.3       1 SUB1        0.134
     24 C          31.1920   67.6230   36.1410 C.2       1 SUB1        0.207
     25 O          30.9370   66.9400   37.1370 O.2       1 SUB1       -0.394
     26 CB         33.7000   67.9960   36.1230 C.3       1 SUB1       -0.010
     27 CG         34.0230   67.8050   37.5700 C.3       1 SUB1       -0.028
     28 CD         33.5990   69.1210   38.1520 C.3       1 SUB1        0.037
     29 N          30.4340   67.5840   35.0400 N.am      1 SUB1       -0.250
     30 CA         29.3120   66.6700   34.8470 C.3       1 SUB1        0.134
     31 C          29.7410   65.2430   34.5380 C.2       1 SUB1        0.207
     32 O          30.9170   64.9740   34.2780 O.2       1 SUB1       -0.394
     33 CB         28.5840   67.2890   33.6590 C.3       1 SUB1       -0.010
     34 CG         28.9210   68.7200   33.7710 C.3       1 SUB1       -0.028
     35 CD         30.3860   68.6480   34.0320 C.3       1 SUB1        0.037
     36 N          28.7930   64.2960   34.6160 N.am      1 SUB1       -0.250
     37 CA         29.1310   62.9030   34.3240 C.3       1 SUB1        0.134
     38 C          29.5600   62.8190   32.8650 C.2       1 SUB1        0.207
     39 O          29.2770   63.7180   32.0770 O.2       1 SUB1       -0.394
     40 CB         27.8080   62.1790   34.5560 C.3       1 SUB1       -0.010
     41 CG         27.1430   63.0140   35.6190 C.3       1 SUB1       -0.028
     42 CD         27.4140   64.4080   35.1300 C.3       1 SUB1        0.037
     43 N          30.2770   61.7590   32.4870 N.am      1 SUB1       -0.250
     44 CA         30.6830   61.6810   31.0850 C.3       1 SUB1        0.134
     45 C          29.4440   61.3440   30.2580 C.2       1 SUB1        0.207
     46 O          28.3410   61.2600   30.8030 O.2       1 SUB1       -0.394
     47 CB         31.6980   60.5440   31.1020 C.3       1 SUB1       -0.010
     48 CG         31.1550   59.6350   32.1700 C.3       1 SUB1       -0.028
     49 CD         30.7580   60.5940   33.2550 C.3       1 SUB1        0.037
     50 N          29.5710   61.2980   28.9250 N.am      1 SUB1       -0.250
     51 CA         28.3560   60.9580   28.1830 C.3       1 SUB1        0.134
     52 C          28.1330   59.4650   28.3500 C.2       1 SUB1        0.207
     53 O          29.0510   58.7390   28.7410 O.2       1 SUB1       -0.394
     54 CB         28.7270   61.3070   26.7420 C.3       1 SUB1       -0.010
     55 CG         29.7110   62.4090   26.9140 C.3       1 SUB1       -0.028
     56 CD         30.5790   61.8670   28.0230 C.3       1 SUB1        0.037
     57 N          26.8880   59.0040   28.1620 N.am      1 SUB1       -0.250
     58 CA         26.5670   57.5800   28.2960 C.3       1 SUB1        0.134
     59 C          27.5360   56.6870   27.4950 C.2       1 SUB1        0.207
     60 O          28.1300   57.1390   26.5130 O.2       1 SUB1       -0.394
     61 CB         25.1290   57.5350   27.7980 C.3       1 SUB1       -0.010
     62 CG         24.5690   58.8200   28.3620 C.3       1 SUB1       -0.028
     63 CD         25.6580   59.8020   27.9840 C.3       1 SUB1        0.037
     64 N          27.6390   55.3960   27.8650 N.am      1 SUB1       -0.255
     65 CA         28.4810   54.3500   27.2930 C.3       1 SUB1        0.084
     66 C          29.7710   54.7780   26.5890 C.2       1 SUB1        0.053
     67 O          30.1370   54.1470   25.5770 O.co2     1 SUB1       -0.564
     68 CB         27.4990   53.6080   26.3960 C.3       1 SUB1       -0.016
     69 CG         26.1920   53.6750   27.2180 C.3       1 SUB1       -0.027
     70 CD         26.4050   54.7490   28.3120 C.3       1 SUB1        0.038
     71 OXT        30.4670   55.6620   27.1370 O.co2     1 SUB1       -0.564
     72 H21        31.4173   77.4968   36.9586 H         1 SUB1        0.110
     73 H51        33.1725   78.7840   37.9090 H         1 SUB1        0.035
     74 H52        33.3672   77.2829   38.8761 H         1 SUB1        0.035
     75 H61        33.0164   79.5468   40.1951 H         1 SUB1        0.032
     76 H62        31.9989   78.1450   40.6707 H         1 SUB1        0.032
     77 H71        31.2805   80.5014   38.8535 H         1 SUB1        0.081
     78 H72        30.3412   79.8098   40.2194 H         1 SUB1        0.081
     79 H91        29.2196   74.2243   39.4572 H         1 SUB1        0.080
     80 H121       27.5046   74.2609   37.8282 H         1 SUB1        0.031
     81 H122       28.3536   72.7671   37.3045 H         1 SUB1        0.031
     82 H131       28.0454   74.6750   35.5182 H         1 SUB1        0.029
     83 H132       29.6881   73.9722   35.7024 H         1 SUB1        0.029
     84 H141       28.5749   76.5687   36.8818 H         1 SUB1        0.052
     85 H142       30.1248   76.3038   36.0133 H         1 SUB1        0.052
     86 H161       32.4166   71.1906   39.3107 H         1 SUB1        0.080
     87 H191       31.6670   69.6078   40.8804 H         1 SUB1        0.031
     88 H192       30.2906   69.1150   39.8368 H         1 SUB1        0.031
     89 H201       30.4961   71.5254   41.7158 H         1 SUB1        0.029
     90 H202       29.1805   70.3088   41.5900 H         1 SUB1        0.029
     91 H211       28.8506   72.6219   40.3408 H         1 SUB1        0.052
     92 H212       28.5066   71.1175   39.4215 H         1 SUB1        0.052
     93 H231       32.1994   69.3366   35.3070 H         1 SUB1        0.080
     94 H261       34.4374   68.6520   35.6373 H         1 SUB1        0.031
     95 H262       33.6643   67.0312   35.5959 H         1 SUB1        0.031
     96 H271       35.0980   67.6275   37.7210 H         1 SUB1        0.029
     97 H272       33.4496   66.9718   38.0024 H         1 SUB1        0.029
     98 H281       34.3489   69.9031   37.9623 H         1 SUB1        0.052
     99 H282       33.4185   69.0408   39.2341 H         1 SUB1        0.052
    100 H301       28.6687   66.6598   35.7392 H         1 SUB1        0.080
    101 H331       27.4980   67.1317   33.7354 H         1 SUB1        0.031
    102 H332       28.9493   66.8701   32.7097 H         1 SUB1        0.031
    103 H341       28.3852   69.1971   34.6049 H         1 SUB1        0.029
    104 H342       28.7030   69.2605   32.8381 H         1 SUB1        0.029
    105 H351       30.7738   69.5982   34.4278 H         1 SUB1        0.052
    106 H352       30.9455   68.3727   33.1259 H         1 SUB1        0.052
    107 H371       29.9238   62.5188   34.9827 H         1 SUB1        0.080
    108 H401       27.9771   61.1512   34.9096 H         1 SUB1        0.031
    109 H402       27.2041   62.1558   33.6369 H         1 SUB1        0.031
    110 H411       27.5964   62.8408   36.6061 H         1 SUB1        0.029
    111 H412       26.0632   62.8106   35.6707 H         1 SUB1        0.029
    112 H421       27.3525   65.1376   35.9509 H         1 SUB1        0.052
    113 H422       26.7130   64.6940   34.3320 H         1 SUB1        0.052
    114 H441       31.1365   62.6175   30.7284 H         1 SUB1        0.080
    115 H471       32.7010   60.9110   31.3653 H         1 SUB1        0.031
    116 H472       31.7384   60.0332   30.1286 H         1 SUB1        0.031
    117 H481       31.9260   58.9345   32.5234 H         1 SUB1        0.029
    118 H482       30.2856   59.0692   31.8040 H         1 SUB1        0.029
    119 H491       31.6192   60.8608   33.8852 H         1 SUB1        0.052
    120 H492       29.9591   60.1747   33.8843 H         1 SUB1        0.052
    121 H511       27.4787   61.5260   28.5260 H         1 SUB1        0.080
    122 H541       27.8464   61.6465   26.1770 H         1 SUB1        0.031
    123 H542       29.1815   60.4460   26.2300 H         1 SUB1        0.031
    124 H551       29.2172   63.3458   27.2116 H         1 SUB1        0.029
    125 H552       30.2915   62.5765   25.9948 H         1 SUB1        0.029
    126 H561       31.1522   62.6675   28.5135 H         1 SUB1        0.052
    127 H562       31.2699   61.0952   27.6530 H         1 SUB1        0.052
    128 H581       26.6117   57.2727   29.3512 H         1 SUB1        0.080
    129 H611       24.5953   56.6578   28.1926 H         1 SUB1        0.031
    130 H612       25.0854   57.5269   26.6989 H         1 SUB1        0.031
    131 H621       24.4405   58.7599   29.4528 H         1 SUB1        0.029
    132 H622       23.6088   59.0819   27.8936 H         1 SUB1        0.029
    133 H631       25.6525   60.6769   28.6507 H         1 SUB1        0.052
    134 H632       25.5481   60.1348   26.9414 H         1 SUB1        0.052
    135 H651       28.7933   53.6802   28.1077 H         1 SUB1        0.078
    136 H681       27.8152   52.5670   26.2336 H         1 SUB1        0.032
    137 H682       27.3860   54.1125   25.4251 H         1 SUB1        0.032
    138 H691       25.9856   52.6988   27.6811 H         1 SUB1        0.029
    139 H692       25.3505   53.9579   26.5686 H         1 SUB1        0.029
    140 H701       26.5307   54.2902   29.3038 H         1 SUB1        0.053
    141 H702       25.5676   55.4617   28.3412 H         1 SUB1        0.053
    142 H11        29.6235   78.1520   38.9295 H         1 SUB1        0.204
    143 H12        30.0665   79.0800   37.6441 H         1 SUB1        0.204
@<TRIPOS>BOND
     1    2    1 1  
     2    2    5 1  
     3    3    2 1  
     4    3    4 2  
     5    5    6 1  
     6    6    7 1  
     7    1    7 1  
     8    9    8 1  
     9    9   12 1  
    10   10    9 1  
    11   10   11 2  
    12   12   13 1  
    13   13   14 1  
    14    8   14 1  
    15   16   15 1  
    16   16   19 1  
    17   17   16 1  
    18   17   18 2  
    19   19   20 1  
    20   20   21 1  
    21   15   21 1  
    22   23   22 1  
    23   23   26 1  
    24   24   23 1  
    25   24   25 2  
    26   26   27 1  
    27   27   28 1  
    28   22   28 1  
    29   30   29 1  
    30   30   33 1  
    31   31   30 1  
    32   31   32 2  
    33   33   34 1  
    34   34   35 1  
    35   29   35 1  
    36   37   36 1  
    37   37   40 1  
    38   38   37 1  
    39   38   39 2  
    40   40   41 1  
    41   41   42 1  
    42   36   42 1  
    43   44   43 1  
    44   44   47 1  
    45   45   44 1  
    46   45   46 2  
    47   47   48 1  
    48   48   49 1  
    49   43   49 1  
    50   51   50 1  
    51   51   54 1  
    52   52   51 1  
    53   52   53 2  
    54   54   55 1  
    55   55   56 1  
    56   50   56 1  
    57   58   57 1  
    58   58   61 1  
    59   59   58 1  
    60   59   60 2  
    61   61   62 1  
    62   62   63 1  
    63   57   63 1  
    64   64   65 1  
    65   65   68 1  
    66   65   66 1  
    67   66   67 2  
    68   66   71 2  
    69   69   68 1  
    70   70   69 1  
    71   64   70 1  
    72    8    3 am 
    73   15   10 am 
    74   22   17 am 
    75   29   24 am 
    76   36   31 am 
    77   43   38 am 
    78   50   45 am 
    79   57   52 am 
    80   59   64 am 
    81    2   72 1  
    82    5   73 1  
    83    5   74 1  
    84    6   75 1  
    85    6   76 1  
    86    7   77 1  
    87    7   78 1  
    88    9   79 1  
    89   12   80 1  
    90   12   81 1  
    91   13   82 1  
    92   13   83 1  
    93   14   84 1  
    94   14   85 1  
    95   16   86 1  
    96   19   87 1  
    97   19   88 1  
    98   20   89 1  
    99   20   90 1  
   100   21   91 1  
   101   21   92 1  
   102   23   93 1  
   103   26   94 1  
   104   26   95 1  
   105   27   96 1  
   106   27   97 1  
   107   28   98 1  
   108   28   99 1  
   109   30  100 1  
   110   33  101 1  
   111   33  102 1  
   112   34  103 1  
   113   34  104 1  
   114   35  105 1  
   115   35  106 1  
   116   37  107 1  
   117   40  108 1  
   118   40  109 1  
   119   41  110 1  
   120   41  111 1  
   121   42  112 1  
   122   42  113 1  
   123   44  114 1  
   124   47  115 1  
   125   47  116 1  
   126   48  117 1  
   127   48  118 1  
   128   49  119 1  
   129   49  120 1  
   130   51  121 1  
   131   54  122 1  
   132   54  123 1  
   133   55  124 1  
   134   55  125 1  
   135   56  126 1  
   136   56  127 1  
   137   58  128 1  
   138   61  129 1  
   139   61  130 1  
   140   62  131 1  
   141   62  132 1  
   142   63  133 1  
   143   63  134 1  
   144   65  135 1  
   145   68  136 1  
   146   68  137 1  
   147   69  138 1  
   148   69  139 1  
   149   70  140 1  
   150   70  141 1  
   151    1  142 1  
   152    1  143 1  
@<TRIPOS>SUBSTRUCTURE
     1 SUB1        1 GROUP

