### 
### Created by X-TOOL on Mon Oct 24 22:40:09 2005
### 

@<TRIPOS>MOLECULE
1b1h_ligand
   70    70     1     0     0
SMALL
GAST_HUCK


@<TRIPOS>ATOM
      1 N           7.1430   17.0090   15.3230 N.4       1 SUB1        0.238
      2 CA          6.6920   18.3230   14.7300 C.3       1 SUB1        0.065
      3 C           5.4310   18.7950   15.4310 C.2       1 SUB1        0.227
      4 O           4.6680   17.9560   15.9050 O.2       1 SUB1       -0.391
      5 CB          6.4710   18.2370   13.2230 C.3       1 SUB1        0.008
      6 CG          5.5920   17.0480   12.7690 C.3       1 SUB1       -0.041
      7 CD          5.5240   17.0240   11.2350 C.3       1 SUB1       -0.012
      8 CE          6.7940   16.3990   10.6400 C.3       1 SUB1       -0.035
      9 NZ          6.7700   14.9290   11.0090 N.4       1 SUB1        0.219
     10 N           5.2270   20.1070   15.5120 N.am      1 SUB1       -0.261
     11 CA          4.0650   20.6460   16.2050 C.3       1 SUB1        0.133
     12 C           2.7840   20.7020   15.3730 C.2       1 SUB1        0.205
     13 O           2.8060   21.0920   14.2150 O.2       1 SUB1       -0.394
     14 CB          4.3770   22.0850   16.6990 C.3       1 SUB1       -0.003
     15 CG          5.5320   22.0670   17.7200 C.3       1 SUB1       -0.015
     16 CD          5.8860   23.4160   18.2790 C.ar      1 SUB1       -0.043
     17 CE1         6.7170   24.3090   17.6270 C.ar      1 SUB1       -0.060
     18 CE2         5.3850   23.7520   19.5200 C.ar      1 SUB1       -0.060
     19 CZ1         7.0250   25.5460   18.1620 C.ar      1 SUB1       -0.069
     20 CZ2         5.6980   24.9930   20.0610 C.ar      1 SUB1       -0.069
     21 CH          6.5170   25.9060   19.4090 C.ar      1 SUB1       -0.069
     22 N           1.6760   20.3060   16.0000 N.am      1 SUB1       -0.268
     23 CA          0.3820   20.3570   15.3410 C.3       1 SUB1        0.081
     24 C          -0.5820   21.2570   16.1210 C.2       1 SUB1        0.053
     25 O          -1.5620   21.6990   15.4890 O.co2     1 SUB1       -0.564
     26 CB         -0.2230   18.9460   15.2170 C.3       1 SUB1       -0.018
     27 CG         -1.2690   18.8930   14.1060 C.3       1 SUB1       -0.043
     28 CD         -2.0760   17.5960   14.1360 C.3       1 SUB1       -0.012
     29 CE         -2.8370   17.4390   12.8060 C.3       1 SUB1       -0.035
     30 NZ         -3.5670   18.7110   12.5220 N.4       1 SUB1        0.219
     31 OXT        -0.3170   21.5930   17.2940 O.co2     1 SUB1       -0.564
     32 H11         7.9803   16.6990   14.8551 H         1 SUB1        0.201
     33 H12         6.4170   16.3199   15.2042 H         1 SUB1        0.201
     34 H13         7.3328   17.1312   16.3054 H         1 SUB1        0.201
     35 H21         7.4842   19.0646   14.9100 H         1 SUB1        0.110
     36 H51         7.4532   18.1431   12.7368 H         1 SUB1        0.035
     37 H52         5.9862   19.1678   12.8934 H         1 SUB1        0.035
     38 H61         4.5781   17.1625   13.1800 H         1 SUB1        0.027
     39 H62         6.0307   16.1069   13.1321 H         1 SUB1        0.027
     40 H71         5.4212   18.0540   10.8629 H         1 SUB1        0.032
     41 H72         4.6510   16.4323   10.9224 H         1 SUB1        0.032
     42 H81         7.6877   16.8814   11.0626 H         1 SUB1        0.081
     43 H82         6.7971   16.5152    9.5462 H         1 SUB1        0.081
     44 H91         7.5899   14.4758   10.6369 H         1 SUB1        0.199
     45 H92         5.9441   14.4991   10.6229 H         1 SUB1        0.199
     46 H93         6.7602   14.8346   12.0125 H         1 SUB1        0.199
     47 H101        5.8823   20.7335   15.0901 H         1 SUB1        0.189
     48 H111        3.8721   20.0034   17.0767 H         1 SUB1        0.080
     49 H141        3.4796   22.5068   17.1751 H         1 SUB1        0.033
     50 H142        4.6635   22.7087   15.8394 H         1 SUB1        0.033
     51 H151        6.4234   21.6552   17.2242 H         1 SUB1        0.043
     52 H152        5.2424   21.4133   18.5559 H         1 SUB1        0.043
     53 H171        7.1392   24.0307   16.6682 H         1 SUB1        0.056
     54 H181        4.7561   23.0576   20.0652 H         1 SUB1        0.056
     55 H191        7.6591   26.2333   17.6138 H         1 SUB1        0.060
     56 H201        5.2875   25.2587   21.0285 H         1 SUB1        0.060
     57 H211        6.7530   26.8655   19.8547 H         1 SUB1        0.056
     58 H221        1.7365   19.9683   16.9393 H         1 SUB1        0.190
     59 H231        0.5190   20.7735   14.3322 H         1 SUB1        0.078
     60 H261       -0.6979   18.6735   16.1710 H         1 SUB1        0.032
     61 H262        0.5799   18.2294   14.9892 H         1 SUB1        0.032
     62 H271       -0.7586   18.9705   13.1347 H         1 SUB1        0.027
     63 H272       -1.9579   19.7419   14.2270 H         1 SUB1        0.027
     64 H281       -2.7942   17.6293   14.9685 H         1 SUB1        0.032
     65 H282       -1.3953   16.7428   14.2728 H         1 SUB1        0.032
     66 H291       -3.5550   16.6095   12.8855 H         1 SUB1        0.081
     67 H292       -2.1249   17.2311   11.9938 H         1 SUB1        0.081
     68 H301       -4.0703   18.6227   11.6531 H         1 SUB1        0.199
     69 H302       -2.9064   19.4691   12.4520 H         1 SUB1        0.199
     70 H303       -4.2169   18.8995   13.2691 H         1 SUB1        0.199
@<TRIPOS>BOND
     1    3    2 1  
     2    2    5 1  
     3    2    1 1  
     4    5    6 1  
     5    6    7 1  
     6    7    8 1  
     7    8    9 1  
     8    3    4 2  
     9   10   11 1  
    10   11   14 1  
    11   11   12 1  
    12   12   13 2  
    13   14   15 1  
    14   15   16 1  
    15   16   18 ar 
    16   16   17 ar 
    17   17   19 ar 
    18   19   21 ar 
    19   20   21 ar 
    20   18   20 ar 
    21   23   24 1  
    22   23   26 1  
    23   22   23 1  
    24   26   27 1  
    25   27   28 1  
    26   28   29 1  
    27   29   30 1  
    28   24   31 2  
    29   24   25 2  
    30   12   22 am 
    31   10    3 am 
    32    1   32 1  
    33    1   33 1  
    34    1   34 1  
    35    2   35 1  
    36    5   36 1  
    37    5   37 1  
    38    6   38 1  
    39    6   39 1  
    40    7   40 1  
    41    7   41 1  
    42    8   42 1  
    43    8   43 1  
    44    9   44 1  
    45    9   45 1  
    46    9   46 1  
    47   10   47 1  
    48   11   48 1  
    49   14   49 1  
    50   14   50 1  
    51   15   51 1  
    52   15   52 1  
    53   17   53 1  
    54   18   54 1  
    55   19   55 1  
    56   20   56 1  
    57   21   57 1  
    58   22   58 1  
    59   23   59 1  
    60   26   60 1  
    61   26   61 1  
    62   27   62 1  
    63   27   63 1  
    64   28   64 1  
    65   28   65 1  
    66   29   66 1  
    67   29   67 1  
    68   30   68 1  
    69   30   69 1  
    70   30   70 1  
@<TRIPOS>SUBSTRUCTURE
     1 SUB1        1 GROUP

