1bxq_ligand
  -I-interpret- 

 89 89  0  0  0  0  0  0  0  0999 V2000
   17.4665    5.9941   17.8149 H   0  0  0  0  0
   16.0810    3.1205   16.9383 H   0  0  0  0  0
   15.8087    4.8960   16.9333 H   0  0  0  0  0
   19.2336    4.8687   19.8687 H   0  0  0  0  0
   14.6670    2.8469   18.9045 H   0  0  0  0  0
   21.1662    5.7168   18.8298 H   0  0  0  0  0
   13.5453    4.7883   19.9568 H   0  0  0  0  0
   14.4198    5.9004   18.8499 H   0  0  0  0  0
   15.3313    4.9446   20.0674 H   0  0  0  0  0
   21.4009    4.2126   16.8876 H   0  0  0  0  0
   19.6256    3.9401   16.9104 H   0  0  0  0  0
   20.6309    3.4283   18.3083 H   0  0  0  0  0
   12.5066    3.6955   17.9614 H   0  0  0  0  0
   13.5547    3.0221   16.6673 H   0  0  0  0  0
   13.4171    4.8008   16.8770 H   0  0  0  0  0
   20.2163    7.6230   17.5977 H   0  0  0  0  0
   19.5716    6.4789   16.3721 H   0  0  0  0  0
   21.3446    6.6221   16.6222 H   0  0  0  0  0
   20.5554    6.5572   20.8404 H   0  0  0  0  0
   19.3611    9.2303   20.9395 H   0  0  0  0  0
   19.3259    7.4080   23.3094 H   0  0  0  0  0
   17.9330    8.1134   22.4214 H   0  0  0  0  0
   19.0185   11.4244   24.1496 H   0  0  0  0  0
   19.1571   11.0225   22.4705 H   0  0  0  0  0
   21.2829    9.7542   20.0248 H   0  0  0  0  0
   23.7378    9.4652   21.6072 H   0  0  0  0  0
   25.0637    9.5202   19.6960 H   0  0  0  0  0
   23.6896   10.0154   18.6503 H   0  0  0  0  0
   22.6336    7.8294   19.0411 H   0  0  0  0  0
   24.1824    6.4750   17.6779 H   0  0  0  0  0
   25.4879    7.6701   17.9844 H   0  0  0  0  0
   24.0273    8.1535   17.0572 H   0  0  0  0  0
   23.6721    7.3089   21.2383 H   0  0  0  0  0
   25.2553    7.0791   20.4214 H   0  0  0  0  0
   23.8848    5.9788   20.0500 H   0  0  0  0  0
   24.2846   13.4753   22.5151 H   0  0  0  0  0
   21.9219   14.3411   22.9131 H   0  0  0  0  0
   23.1563   14.8590   24.1109 H   0  0  0  0  0
   25.7295   13.7534   26.9433 H   0  0  0  0  0
   26.3812   12.3206   26.0779 H   0  0  0  0  0
   24.8394   12.1940   26.9909 H   0  0  0  0  0
   21.7350   15.4664   25.8862 H   0  0  0  0  0
   21.3836   11.6248   24.1036 H   0  0  0  0  0
   20.2310   14.7380   27.7327 H   0  0  0  0  0
   19.3671   12.4504   27.6961 H   0  0  0  0  0
   19.8787   10.8146   25.8989 H   0  0  0  0  0
   17.8320    5.2860   18.4190 N   0  0  0  0  0
   15.9120    4.0050   17.5700 C   0  0  0  0  0
   19.0790    5.6070   19.0680 C   0  0  0  0  0
   14.6320    3.8110   18.3760 C   0  0  0  0  0
   20.3030    5.5530   18.1680 C   0  0  0  0  0
   14.4710    4.9390   19.3820 C   0  0  0  0  0
   20.5040    4.1890   17.5240 C   0  0  0  0  0
   13.4430    3.8340   17.4010 C   0  0  0  0  0
   20.3630    6.6440   17.1180 C   0  0  0  0  0
   17.1080    4.1910   18.5110 C   0  0  0  0  0
   18.9500    7.0010   19.7110 C   0  0  0  0  0
   17.4690    3.3090   19.2930 O   0  0  0  0  0
   18.0990    7.8140   19.3640 O   0  0  0  0  0
   19.8370    7.2350   20.6840 N   0  0  0  0  0
   19.8160    8.4200   21.5280 C   0  0  0  0  0
   18.9670    8.2870   22.7540 C   0  0  0  0  0
   18.9430    9.4570   23.7210 C   0  0  0  0  0
   18.8230    9.1030   24.9170 O   0  0  0  0  0
   19.0480   10.7380   23.4230 N   0  0  0  0  0
   21.2630    8.8130   21.7810 C   0  0  0  0  0
   21.8280    8.4580   22.8110 O   0  0  0  0  0
   21.8590    9.5010   20.8020 N   0  0  0  0  0
   23.2410    9.9210   20.7380 C   0  0  0  0  0
   23.9850    9.4030   19.5150 C   0  0  0  0  0
   23.7190    7.9470   19.1750 C   0  0  0  0  0
   24.4010    7.5330   17.8850 C   0  0  0  0  0
   24.1640    7.0130   20.3000 C   0  0  0  0  0
   23.4010   11.6970   20.9410 P   0  0  0  0  0
   22.4630   12.3340   19.9930 O   0  0  0  0  0
   24.8440   12.0810   20.8150 O   0  5  0  0  0
   22.9220   12.0060   22.3990 O   0  0  0  0  0
   23.5630   12.9600   23.1660 C   0  0  0  0  0
   22.5630   14.0090   23.7430 C   0  0  0  0  0
   25.4640   12.8530   26.3700 C   0  0  0  0  0
   21.6500   13.5740   24.8720 C   0  0  0  0  0
   21.3300   14.4610   25.8960 C   0  0  0  0  0
   21.1210   12.3000   24.9100 C   0  0  0  0  0
   20.4960   14.0630   26.9270 C   0  0  0  0  0
   20.0140   12.7620   26.8840 C   0  0  0  0  0
   20.2840   11.8200   25.8950 C   0  0  0  0  0
   24.3240   12.3790   24.3790 C   0  0  0  0  0
   24.7470   13.2270   25.2110 O   0  0  0  0  0
   24.4260   11.1470   24.5140 O   0  0  0  0  0
 47  1  1  0  0  0
 48  2  1  0  0  0
 48  3  1  0  0  0
 49  4  1  0  0  0
 50  5  1  0  0  0
 51  6  1  0  0  0
 52  7  1  0  0  0
 52  8  1  0  0  0
 52  9  1  0  0  0
 53 10  1  0  0  0
 53 11  1  0  0  0
 53 12  1  0  0  0
 54 13  1  0  0  0
 54 14  1  0  0  0
 54 15  1  0  0  0
 55 16  1  0  0  0
 55 17  1  0  0  0
 55 18  1  0  0  0
 60 19  1  0  0  0
 61 20  1  0  0  0
 62 21  1  0  0  0
 62 22  1  0  0  0
 65 23  1  0  0  0
 65 24  1  0  0  0
 68 25  1  0  0  0
 69 26  1  0  0  0
 70 27  1  0  0  0
 70 28  1  0  0  0
 71 29  1  0  0  0
 72 30  1  0  0  0
 72 31  1  0  0  0
 72 32  1  0  0  0
 73 33  1  0  0  0
 73 34  1  0  0  0
 73 35  1  0  0  0
 78 36  1  0  0  0
 79 37  1  0  0  0
 79 38  1  0  0  0
 80 39  1  0  0  0
 80 40  1  0  0  0
 80 41  1  0  0  0
 82 42  1  0  0  0
 83 43  1  0  0  0
 84 44  1  0  0  0
 85 45  1  0  0  0
 86 46  1  0  0  0
 47 49  1  0  0  0
 56 47  1  0  0  0
 49 51  1  0  0  0
 49 57  1  0  0  0
 51 53  1  0  0  0
 51 55  1  0  0  0
 56 58  2  0  0  0
 57 59  2  0  0  0
 57 60  1  0  0  0
 60 61  1  0  0  0
 61 62  1  0  0  0
 61 66  1  0  0  0
 62 63  1  0  0  0
 63 64  2  0  0  0
 63 65  1  0  0  0
 66 67  2  0  0  0
 66 68  1  0  0  0
 68 69  1  0  0  0
 69 70  1  0  0  0
 69 74  1  0  0  0
 70 71  1  0  0  0
 71 72  1  0  0  0
 71 73  1  0  0  0
 74 75  2  0  0  0
 74 76  1  0  0  0
 74 77  1  0  0  0
 77 78  1  0  0  0
 78 79  1  0  0  0
 78 87  1  0  0  0
 79 81  1  0  0  0
 81 82  4  0  0  0
 81 83  4  0  0  0
 82 84  4  0  0  0
 83 86  4  0  0  0
 84 85  4  0  0  0
 86 85  4  0  0  0
 87 88  1  0  0  0
 87 89  2  0  0  0
 88 80  1  0  0  0
 48 56  1  0  0  0
 50 54  1  0  0  0
 50 52  1  0  0  0
 48 50  1  0  0  0
M  END
$$$$
