6abp_ligand
  -I-interpret- 

 20 20  0  0  0  0  0  0  0  0999 V2000
   14.2963   55.5354   55.4649 H   0  0  0  0  0
   12.9906   58.2102   54.5688 H   0  0  0  0  0
   12.3901   55.3659   54.1275 H   0  0  0  0  0
   12.8786   55.7364   51.7121 H   0  0  0  0  0
   15.4265   56.3661   51.9894 H   0  0  0  0  0
   14.8390   55.0017   52.9993 H   0  0  0  0  0
   15.7229   57.1044   56.3782 H   0  0  0  0  0
   11.2044   57.1666   55.7551 H   0  0  0  0  0
   10.4826   56.7724   54.0979 H   0  0  0  0  0
   12.4844   58.0635   51.6395 H   0  0  0  0  0
   14.3290   56.6010   55.1940 C   0  0  0  0  0
   12.9450   57.1400   54.8190 C   0  0  0  0  0
   12.4230   56.4070   53.7740 C   0  0  0  0  0
   13.2900   56.4430   52.4480 C   0  0  0  0  0
   14.7570   56.0830   52.8150 C   0  0  0  0  0
   14.8230   57.3560   56.2070 O   0  0  0  0  0
   12.0900   56.8890   55.9580 O   0  0  0  0  0
   11.0620   56.7740   53.3450 O   0  0  0  0  0
   13.3570   57.7810   51.8870 O   0  0  0  0  0
   15.1350   56.8380   54.0550 O   0  0  0  0  0
 11  1  1  0  0  0
 12  2  1  0  0  0
 13  3  1  0  0  0
 14  4  1  0  0  0
 15  5  1  0  0  0
 15  6  1  0  0  0
 16  7  1  0  0  0
 17  8  1  0  0  0
 18  9  1  0  0  0
 19 10  1  0  0  0
 12 11  1  0  0  0
 11 16  1  0  0  0
 11 20  1  0  0  0
 13 12  1  0  0  0
 12 17  1  0  0  0
 14 13  1  0  0  0
 13 18  1  0  0  0
 14 15  1  0  0  0
 14 19  1  0  0  0
 15 20  1  0  0  0
M  END
$$$$
