1gi6_ligand
  -I-interpret- 

 33 35  0  0  0  0  0  0  0  0999 V2000
   45.0275   -1.2070   25.4625 H   0  0  0  0  0
   44.9724    0.1302   27.5424 H   0  0  0  0  0
   43.2786   -4.5453   27.5580 H   0  0  0  0  0
   44.0692   -5.5671   24.3589 H   0  0  0  0  0
   43.8107   -5.4631   26.1210 H   0  0  0  0  0
   44.1620   -2.9710   26.3600 C   0  0  0  0  0
   44.6360   -1.6440   26.3740 C   0  0  0  0  0
   44.6090   -0.8910   27.5340 C   0  0  0  0  0
   44.1120   -1.4680   28.6700 C   0  0  0  0  0
   43.6510   -2.7370   28.6680 C   0  0  0  0  0
   43.6550   -3.5290   27.5350 C   0  0  0  0  0
   44.2320   -3.7060   25.1760 C   0  3  0  0  0
   44.0220   -5.0070   25.2220 N   0  0  0  0  0
   44.5210   -3.0830   24.0420 N   0  0  0  0  0
   43.9980   -0.9600   29.8730 N   0  0  0  0  0
   43.2410   -2.9910   29.9540 C   0  0  0  0  0
   43.4830   -1.8500   30.6820 C   0  0  0  0  0
   43.2410   -1.6500   32.0330 C   0  0  0  0  0
   42.9800   -2.7540   32.8420 C   0  0  0  0  0
   42.7360   -2.5920   34.1930 C   0  0  0  0  0
   42.7430   -1.3140   34.7390 C   0  0  0  0  0
   43.0030   -0.1930   33.9290 C   0  0  0  0  0
   43.2500   -0.3590   32.5670 C   0  0  0  0  0
   43.5060    0.7530   31.7730 O   0  0  0  0  0
   44.6796   -2.0653   24.0395 H   0  0  0  0  0
   44.5869   -3.6167   23.1635 H   0  0  0  0  0
   44.2725   -0.0041   30.1410 H   0  0  0  0  0
   42.8074   -3.9182   30.3257 H   0  0  0  0  0
   42.9682   -3.7476   32.4087 H   0  0  0  0  0
   42.5410   -3.4539   34.8208 H   0  0  0  0  0
   42.5467   -1.1797   35.7966 H   0  0  0  0  0
   43.0112    0.7998   34.3642 H   0  0  0  0  0
   43.6528    0.4739   30.8769 H   0  0  0  0  0
  7  1  1  0  0  0
  8  2  1  0  0  0
 11  3  1  0  0  0
 13  4  1  0  0  0
 12  6  1  0  0  0
  6 11  4  0  0  0
  6  7  4  0  0  0
  7  8  4  0  0  0
  8  9  4  0  0  0
  9 15  1  0  0  0
 10  9  4  0  0  0
 10 16  1  0  0  0
 11 10  4  0  0  0
 16 17  2  0  0  0
 17 18  1  0  0  0
 15 17  1  0  0  0
 18 23  4  0  0  0
 18 19  4  0  0  0
 13  5  1  0  0  0
 19 20  4  0  0  0
 14 25  1  0  0  0
 20 21  4  0  0  0
 14 26  1  0  0  0
 22 21  4  0  0  0
 15 27  1  0  0  0
 23 22  4  0  0  0
 23 24  1  0  0  0
 12 14  1  0  0  0
 12 13  1  0  0  0
 16 28  1  0  0  0
 19 29  1  0  0  0
 20 30  1  0  0  0
 21 31  1  0  0  0
 22 32  1  0  0  0
 24 33  1  0  0  0
M  END
$$$$
