### 
### Created by X-TOOL on Mon Oct 24 21:59:47 2005
### 

@<TRIPOS>MOLECULE
1gi6_ligand
   33    35     1     0     0
SMALL
GAST_HUCK


@<TRIPOS>ATOM
      1 H71        45.0275   -1.2070   25.4625 H         1 SUB1        0.058
      2 H81        44.9724    0.1302   27.5424 H         1 SUB1        0.054
      3 H111       43.2786   -4.5453   27.5580 H         1 SUB1        0.058
      4 H131       44.0692   -5.5671   24.3589 H         1 SUB1        0.192
      5 H132       43.8107   -5.4631   26.1210 H         1 SUB1        0.192
      6 C1         44.1620   -2.9710   26.3600 C.ar      1 SUB1        0.169
      7 C2         44.6360   -1.6440   26.3740 C.ar      1 SUB1       -0.022
      8 C3         44.6090   -0.8910   27.5340 C.ar      1 SUB1       -0.039
      9 C4         44.1120   -1.4680   28.6700 C.ar      1 SUB1        0.063
     10 C5         43.6510   -2.7370   28.6680 C.ar      1 SUB1       -0.023
     11 C6         43.6550   -3.5290   27.5350 C.ar      1 SUB1       -0.021
     12 C7         44.2320   -3.7060   25.1760 C.cat     1 SUB1        0.309
     13 N1         44.0220   -5.0070   25.2220 N.pl3     1 SUB1       -0.201
     14 N2         44.5210   -3.0830   24.0420 N.pl3     1 SUB1       -0.201
     15 N3         43.9980   -0.9600   29.8730 N.pl3     1 SUB1       -0.276
     16 C9         43.2410   -2.9910   29.9540 C.2       1 SUB1       -0.058
     17 C8         43.4830   -1.8500   30.6820 C.2       1 SUB1        0.060
     18 C1'        43.2410   -1.6500   32.0330 C.ar      1 SUB1        0.036
     19 C2'        42.9800   -2.7540   32.8420 C.ar      1 SUB1       -0.060
     20 C3'        42.7360   -2.5920   34.1930 C.ar      1 SUB1       -0.072
     21 C4'        42.7430   -1.3140   34.7390 C.ar      1 SUB1       -0.070
     22 C5'        43.0030   -0.1930   33.9290 C.ar      1 SUB1       -0.031
     23 C6'        43.2500   -0.3590   32.5670 C.ar      1 SUB1        0.101
     24 O6'        43.5060    0.7530   31.7730 O.3       1 SUB1       -0.330
     25 H141       44.6796   -2.0653   24.0395 H         1 SUB1        0.192
     26 H142       44.5869   -3.6167   23.1635 H         1 SUB1        0.192
     27 H151       44.2725   -0.0041   30.1410 H         1 SUB1        0.223
     28 H161       42.8074   -3.9182   30.3257 H         1 SUB1        0.030
     29 H191       42.9682   -3.7476   32.4087 H         1 SUB1        0.059
     30 H201       42.5410   -3.4539   34.8208 H         1 SUB1        0.053
     31 H211       42.5467   -1.1797   35.7966 H         1 SUB1        0.059
     32 H221       43.0112    0.7998   34.3642 H         1 SUB1        0.054
     33 H241       43.6528    0.4739   30.8769 H         1 SUB1        0.250
@<TRIPOS>BOND
     1    7    1 1  
     2    8    2 1  
     3   11    3 1  
     4   13    4 1  
     5   12    6 1  
     6    6   11 ar 
     7    6    7 ar 
     8    7    8 ar 
     9    8    9 ar 
    10    9   15 1  
    11   10    9 ar 
    12   10   16 1  
    13   11   10 ar 
    14   16   17 2  
    15   17   18 1  
    16   15   17 1  
    17   18   23 ar 
    18   18   19 ar 
    19   13    5 1  
    20   19   20 ar 
    21   14   25 1  
    22   20   21 ar 
    23   14   26 1  
    24   22   21 ar 
    25   15   27 1  
    26   23   22 ar 
    27   23   24 1  
    28   12   14 1  
    29   12   13 1  
    30   16   28 1  
    31   19   29 1  
    32   20   30 1  
    33   21   31 1  
    34   22   32 1  
    35   24   33 1  
@<TRIPOS>SUBSTRUCTURE
     1 SUB1        1 GROUP

