### 
### Created by X-TOOL on Sun Jun  3 11:32:08 2007
### 

@<TRIPOS>MOLECULE
2j7f_ligand
   28    29     1     0     0
SMALL
GAST_HUCK


@<TRIPOS>ATOM
      1 C1         34.1380   24.1570   38.7180 C.2       1 SUB1        0.255
      2 C2         35.0250   23.1910   38.0220 C.3       1 SUB1        0.203
      3 O2         36.2280   23.0440   38.8040 O.3       1 SUB1       -0.353
      4 C3         35.3170   23.7160   36.6100 C.3       1 SUB1        0.140
      5 C80        32.9540   25.9430   39.1670 C.2       1 SUB1        0.181
      6 O3         35.6440   22.5790   35.8160 O.3       1 SUB1       -0.381
      7 C4         34.1310   24.6110   36.1080 C.3       1 SUB1        0.124
      8 N10        33.7460   25.3550   38.2580 N.pl3     1 SUB1       -0.128
      9 O4         34.0640   24.9460   34.7060 O.3       1 SUB1       -0.385
     10 C5         34.1140   25.8840   36.9380 C.3       1 SUB1        0.148
     11 C6         33.0860   26.9090   36.4980 C.3       1 SUB1        0.080
     12 O6         31.7510   26.4240   36.6590 O.3       1 SUB1       -0.392
     13 N1         33.5970   23.9810   39.9400 N.2       1 SUB1       -0.180
     14 C7         32.8710   25.0760   40.2380 C.2       1 SUB1        0.187
     15 C8         32.1390   25.3010   41.4940 C.2       1 SUB1        0.118
     16 O8         31.1390   25.9920   41.5040 O.2       1 SUB1       -0.549
     17 O9         32.6270   24.7710   42.5960 O.2       1 SUB1       -0.549
     18 H          34.5559   22.2122   37.9223 H         1 SUB1        0.109
     19 H          36.8164   22.4219   38.3700 H         1 SUB1        0.218
     20 H          36.1696   24.3932   36.5591 H         1 SUB1        0.071
     21 H          32.4703   26.9157   39.0775 H         1 SUB1        0.194
     22 H          35.8354   22.8611   34.9186 H         1 SUB1        0.211
     23 H          33.2507   23.9821   36.2408 H         1 SUB1        0.066
     24 H          33.2923   25.4939   34.5456 H         1 SUB1        0.210
     25 H          35.0596   26.4223   36.8736 H         1 SUB1        0.074
     26 H          33.2473   27.1247   35.4418 H         1 SUB1        0.059
     27 H          33.2040   27.7996   37.1153 H         1 SUB1        0.059
     28 H          31.5958   26.2182   37.5838 H         1 SUB1        0.209
@<TRIPOS>BOND
     1    1    2 1  
     2    1    8 1  
     3    1   13 2  
     4    2    3 1  
     5    2    4 1  
     6    4    6 1  
     7    4    7 1  
     8    8    5 1  
     9    5   14 2  
    10    7    9 1  
    11    7   10 1  
    12    8   10 1  
    13   10   11 1  
    14   11   12 1  
    15   13   14 1  
    16   14   15 1  
    17   15   16 2  
    18   15   17 2  
    19    2   18 1  
    20    3   19 1  
    21    4   20 1  
    22    5   21 1  
    23    6   22 1  
    24    7   23 1  
    25    9   24 1  
    26   10   25 1  
    27   11   26 1  
    28   11   27 1  
    29   12   28 1  
@<TRIPOS>SUBSTRUCTURE
     1 SUB1        1 GROUP

