2j7f_ligand
  -I-interpret- 

 28 29  0  0  0  0  0  0  0  0999 V2000
   34.1380   24.1570   38.7180 C   0  0  0  0  0
   35.0250   23.1910   38.0220 C   0  0  0  0  0
   36.2280   23.0440   38.8040 O   0  0  0  0  0
   35.3170   23.7160   36.6100 C   0  0  0  0  0
   32.9540   25.9430   39.1670 C   0  0  0  0  0
   35.6440   22.5790   35.8160 O   0  0  0  0  0
   34.1310   24.6110   36.1080 C   0  0  0  0  0
   33.7460   25.3550   38.2580 N   0  0  0  0  0
   34.0640   24.9460   34.7060 O   0  0  0  0  0
   34.1140   25.8840   36.9380 C   0  0  0  0  0
   33.0860   26.9090   36.4980 C   0  0  0  0  0
   31.7510   26.4240   36.6590 O   0  0  0  0  0
   33.5970   23.9810   39.9400 N   0  0  0  0  0
   32.8710   25.0760   40.2380 C   0  0  0  0  0
   32.1390   25.3010   41.4940 C   0  0  0  0  0
   31.1390   25.9920   41.5040 O   0  0  0  0  0
   32.6270   24.7710   42.5960 O   0  5  0  0  0
   34.5559   22.2122   37.9223 H   0  0  0  0  0
   36.8164   22.4219   38.3700 H   0  0  0  0  0
   36.1696   24.3932   36.5591 H   0  0  0  0  0
   32.4703   26.9157   39.0775 H   0  0  0  0  0
   35.8354   22.8611   34.9186 H   0  0  0  0  0
   33.2507   23.9821   36.2408 H   0  0  0  0  0
   33.2923   25.4939   34.5456 H   0  0  0  0  0
   35.0596   26.4223   36.8736 H   0  0  0  0  0
   33.2473   27.1247   35.4418 H   0  0  0  0  0
   33.2040   27.7996   37.1153 H   0  0  0  0  0
   31.5958   26.2182   37.5838 H   0  0  0  0  0
  1  2  1  0  0  0
  1  8  1  0  0  0
  1 13  2  0  0  0
  2  3  1  0  0  0
  2  4  1  0  0  0
  4  6  1  0  0  0
  4  7  1  0  0  0
  8  5  1  0  0  0
  5 14  2  0  0  0
  7  9  1  0  0  0
  7 10  1  0  0  0
  8 10  1  0  0  0
 10 11  1  0  0  0
 11 12  1  0  0  0
 13 14  1  0  0  0
 14 15  1  0  0  0
 15 16  2  0  0  0
 15 17  1  0  0  0
  2 18  1  0  0  0
  3 19  1  0  0  0
  4 20  1  0  0  0
  5 21  1  0  0  0
  6 22  1  0  0  0
  7 23  1  0  0  0
  9 24  1  0  0  0
 10 25  1  0  0  0
 11 26  1  0  0  0
 11 27  1  0  0  0
 12 28  1  0  0  0
M  END
$$$$
