### 
### Created by X-TOOL on Tue Oct 25 01:10:40 2005
### 

@<TRIPOS>MOLECULE
1jqy_ligand
   62    64     1     0     0
SMALL
GAST_HUCK


@<TRIPOS>ATOM
      1 C1         50.2040    2.1310   -1.6490 C.3       1 SUB1        0.210
      2 O1         50.4090    0.6840   -1.5200 O.3       1 SUB1       -0.283
      3 C2         50.9120    3.0240   -0.5900 C.3       1 SUB1        0.139
      4 O2         52.3400    3.0370   -0.6630 O.3       1 SUB1       -0.384
      5 C3         50.4950    2.5360    0.8120 C.3       1 SUB1        0.115
      6 O3         50.9900    3.4940    1.7290 O.3       1 SUB1       -0.386
      7 C4         48.9310    2.6760    0.8520 C.3       1 SUB1        0.112
      8 O4         48.5540    4.0360    0.9380 O.3       1 SUB1       -0.387
      9 C5         48.2460    1.9190   -0.2960 C.3       1 SUB1        0.113
     10 O5         48.7850    2.3660   -1.5640 O.3       1 SUB1       -0.337
     11 C6         46.7090    2.0260   -0.3230 C.3       1 SUB1        0.073
     12 O6         46.1300    1.0970   -1.2100 O.3       1 SUB1       -0.392
     13 C1'        50.1220   -0.0160   -2.7540 C.ar      1 SUB1        0.107
     14 C2'        50.9800    0.0950   -3.8470 C.ar      1 SUB1        0.014
     15 C3'        50.6490   -0.6100   -5.0190 C.ar      1 SUB1        0.197
     16 C4'        49.4520   -1.3980   -4.9680 C.ar      1 SUB1       -0.010
     17 C5'        48.5990   -1.4910   -3.8490 C.ar      1 SUB1        0.049
     18 C6'        48.9510   -0.7620   -2.6760 C.ar      1 SUB1       -0.008
     19 N1'        51.3940   -0.6530   -6.2170 N.2       1 SUB1        0.313
     20 O1'        50.8480   -1.3250   -7.1610 O.2       1 SUB1        0.178
     21 O2'        52.5260   -0.1370   -6.3440 O.2       1 SUB1        0.178
     22 C7'        47.3860   -2.2250   -3.7440 C.2       1 SUB1        0.204
     23 O3'        46.9910   -2.3330   -2.5240 O.2       1 SUB1       -0.385
     24 N2'        46.7440   -2.6570   -4.7090 N.am      1 SUB1       -0.286
     25 O1'        48.1190   -8.6530   -4.0990 O.3       1 SUB1       -0.377
     26 C2'        49.2480   -7.8630   -4.3650 C.3       1 SUB1        0.060
     27 C3'        49.1440   -6.5630   -5.1240 C.3       1 SUB1        0.022
     28 N4'        47.8810   -6.2430   -5.8710 N.3       1 SUB1       -0.298
     29 C5'        46.8980   -7.3800   -5.8230 C.3       1 SUB1        0.022
     30 C6'        46.8440   -8.1320   -4.4960 C.3       1 SUB1        0.060
     31 C7'        47.2470   -4.9070   -5.6470 C.3       1 SUB1        0.001
     32 C8'        47.3240   -3.8610   -6.7500 C.3       1 SUB1       -0.020
     33 C9'        46.8690   -2.5160   -6.1120 C.3       1 SUB1        0.032
     34 H11        50.5684    2.4369   -2.6408 H         1 SUB1        0.099
     35 H31        50.5599    4.0565   -0.7314 H         1 SUB1        0.068
     36 H41        52.6845    3.6239   -0.0001 H         1 SUB1        0.210
     37 H51        50.8418    1.5155    1.0315 H         1 SUB1        0.065
     38 H61        50.7137    4.3618    1.4587 H         1 SUB1        0.210
     39 H71        48.5920    2.1968    1.7823 H         1 SUB1        0.065
     40 H81        49.0103    4.4446    1.6641 H         1 SUB1        0.210
     41 H91        48.4939    0.8543   -0.1740 H         1 SUB1        0.065
     42 H111       46.4293    3.0415   -0.6402 H         1 SUB1        0.058
     43 H112       46.3222    1.8386    0.6896 H         1 SUB1        0.058
     44 H121       45.1852    1.1952   -1.1973 H         1 SUB1        0.209
     45 H141       51.8743    0.7054   -3.7957 H         1 SUB1        0.065
     46 H161       49.1836   -1.9628   -5.8534 H         1 SUB1        0.065
     47 H181       48.3435   -0.7875   -1.7786 H         1 SUB1        0.064
     48 H241       45.9694   -3.2294   -4.4400 H         1 SUB1        0.184
     49 H261       49.6905   -7.6168   -3.3885 H         1 SUB1        0.057
     50 H262       49.9434   -8.4983   -4.9330 H         1 SUB1        0.057
     51 H271       49.2989   -5.7536   -4.3954 H         1 SUB1        0.045
     52 H272       49.9617   -6.5555   -5.8597 H         1 SUB1        0.045
     53 H291       47.1685   -8.0981   -6.6111 H         1 SUB1        0.045
     54 H292       45.8962   -6.9734   -6.0255 H         1 SUB1        0.045
     55 H301       46.4879   -7.4428   -3.7161 H         1 SUB1        0.057
     56 H302       46.1379   -8.9695   -4.5955 H         1 SUB1        0.057
     57 H311       46.1805   -5.0858   -5.4457 H         1 SUB1        0.043
     58 H312       47.7204   -4.4708   -4.7550 H         1 SUB1        0.043
     59 H321       48.3556   -3.7759   -7.1223 H         1 SUB1        0.030
     60 H322       46.6559   -4.1336   -7.5802 H         1 SUB1        0.030
     61 H331       47.6146   -1.7383   -6.3339 H         1 SUB1        0.052
     62 H332       45.8969   -2.2236   -6.5357 H         1 SUB1        0.052
@<TRIPOS>BOND
     1    1   10 1  
     2    1    3 1  
     3    1    2 1  
     4    2   13 1  
     5   13   18 ar 
     6   13   14 ar 
     7   14   15 ar 
     8   15   19 1  
     9   15   16 ar 
    10   16   17 ar 
    11   17   22 1  
    12   17   18 ar 
    13   22   24 am 
    14   22   23 2  
    15   24   33 1  
    16   33   32 1  
    17   32   31 1  
    18   31   28 1  
    19   28   29 1  
    20   28   27 1  
    21   27   26 1  
    22   26   25 1  
    23   25   30 1  
    24   30   29 1  
    25   19   21 2  
    26   19   20 2  
    27    3    5 1  
    28    3    4 1  
    29    5    7 1  
    30    5    6 1  
    31    7    9 1  
    32    7    8 1  
    33    9   11 1  
    34    9   10 1  
    35   11   12 1  
    36    1   34 1  
    37    3   35 1  
    38    4   36 1  
    39    5   37 1  
    40    6   38 1  
    41    7   39 1  
    42    8   40 1  
    43    9   41 1  
    44   11   42 1  
    45   11   43 1  
    46   12   44 1  
    47   14   45 1  
    48   16   46 1  
    49   18   47 1  
    50   24   48 1  
    51   26   49 1  
    52   26   50 1  
    53   27   51 1  
    54   27   52 1  
    55   29   53 1  
    56   29   54 1  
    57   30   55 1  
    58   30   56 1  
    59   31   57 1  
    60   31   58 1  
    61   32   59 1  
    62   32   60 1  
    63   33   61 1  
    64   33   62 1  
@<TRIPOS>SUBSTRUCTURE
     1 SUB1        1 GROUP

