### 
### Created by X-TOOL on Mon Oct 24 23:06:56 2005
### 

@<TRIPOS>MOLECULE
1fhd_ligand
   39    41     1     0     0
SMALL
GAST_HUCK


@<TRIPOS>ATOM
      1 C1        -62.3400   16.9760   57.1640 C.3       1 SUB1        0.188
      2 C2        -61.3240   16.7960   58.2880 C.3       1 SUB1        0.134
      3 C3        -60.7700   15.3610   58.2970 C.3       1 SUB1        0.114
      4 C4        -61.9050   14.3280   58.2450 C.3       1 SUB1        0.107
      5 C5        -62.8660   14.6490   57.0970 C.3       1 SUB1        0.079
      6 O2        -60.2620   17.7200   58.0980 O.3       1 SUB1       -0.384
      7 O3        -60.0170   15.1620   59.4830 O.3       1 SUB1       -0.386
      8 O4        -61.3730   13.0200   58.0770 O.3       1 SUB1       -0.387
      9 O5        -63.3760   15.9880   57.2570 O.3       1 SUB1       -0.346
     10 C1        -64.9770   19.6790   53.8930 C.2       1 SUB1        0.146
     11 C2        -65.7950   19.7300   55.2360 C.3       1 SUB1        0.159
     12 C3        -64.8270   19.5360   56.4280 C.3       1 SUB1        0.125
     13 C4        -63.7190   18.5240   56.0950 C.3       1 SUB1        0.120
     14 C5        -62.7790   19.0510   54.9930 C.3       1 SUB1        0.086
     15 N1        -63.6240   19.3650   53.8800 N.pl3     1 SUB1       -0.246
     16 C17       -63.3290   19.4260   52.5390 C.2       1 SUB1        0.028
     17 C18       -64.4290   19.7520   51.8260 C.2       1 SUB1       -0.036
     18 N21       -65.4620   19.9120   52.6610 N.2       1 SUB1       -0.337
     19 O2        -66.5530   20.9040   55.4460 O.3       1 SUB1       -0.370
     20 O3        -65.5560   19.0870   57.5520 O.3       1 SUB1       -0.384
     21 O4        -62.9370   18.2880   57.2480 O.3       1 SUB1       -0.340
     22 H11       -61.8262   16.8711   56.1970 H         1 SUB1        0.094
     23 H21       -61.8134   16.9964   59.2525 H         1 SUB1        0.067
     24 H31       -60.1184   15.2225   57.4216 H         1 SUB1        0.065
     25 H41       -62.4607   14.3661   59.1936 H         1 SUB1        0.064
     26 H51       -63.7022   13.9345   57.1082 H         1 SUB1        0.059
     27 H52       -62.3311   14.5725   56.1389 H         1 SUB1        0.059
     28 H61       -60.6070   18.6050   58.1141 H         1 SUB1        0.210
     29 H71       -59.6726   14.2768   59.4933 H         1 SUB1        0.210
     30 H81       -60.8001   12.8162   58.8069 H         1 SUB1        0.210
     31 H111      -66.5005   18.8862   55.2186 H         1 SUB1        0.086
     32 H121      -64.3602   20.5035   56.6647 H         1 SUB1        0.068
     33 H131      -64.1818   17.5840   55.7600 H         1 SUB1        0.065
     34 H141      -62.0464   18.2798   54.7127 H         1 SUB1        0.064
     35 H142      -62.2497   19.9512   55.3386 H         1 SUB1        0.064
     36 H161      -62.3455   19.2377   52.1109 H         1 SUB1        0.080
     37 H171      -64.4687   19.8664   50.7437 H         1 SUB1        0.041
     38 H191      -67.0083   20.8411   56.2774 H         1 SUB1        0.214
     39 H201      -64.9636   18.9672   58.2850 H         1 SUB1        0.210
@<TRIPOS>BOND
     1    1    9 1  
     2    1    2 1  
     3    2    6 1  
     4    2    3 1  
     5    3    7 1  
     6    3    4 1  
     7    4    8 1  
     8    5    4 1  
     9    9    5 1  
    10   10   18 2  
    11   15   10 1  
    12   11   10 1  
    13   11   19 1  
    14   12   11 1  
    15   12   20 1  
    16   13   12 1  
    17   21   13 1  
    18   13   14 1  
    19   14   15 1  
    20   15   16 1  
    21   16   17 2  
    22   17   18 1  
    23   21    1 1  
    24    1   22 1  
    25    2   23 1  
    26    3   24 1  
    27    4   25 1  
    28    5   26 1  
    29    5   27 1  
    30    6   28 1  
    31    7   29 1  
    32    8   30 1  
    33   11   31 1  
    34   12   32 1  
    35   13   33 1  
    36   14   34 1  
    37   14   35 1  
    38   16   36 1  
    39   17   37 1  
    40   19   38 1  
    41   20   39 1  
@<TRIPOS>SUBSTRUCTURE
     1 SUB1        1 GROUP

