### 
### Created by X-TOOL on Tue Oct 25 00:58:56 2005
### 

@<TRIPOS>MOLECULE
1mjj_ligand
   60    61     1     0     0
SMALL
GAST_HUCK


@<TRIPOS>ATOM
      1 CP1         0.9290   44.8040   49.5320 C.ar      1 SUB1       -0.041
      2 CP2         1.8140   45.3060   48.5900 C.ar      1 SUB1       -0.060
      3 CP3         1.6210   45.0410   47.2170 C.ar      1 SUB1       -0.069
      4 CP4         0.5340   44.2670   46.8060 C.ar      1 SUB1       -0.069
      5 CP5        -0.3540   43.7690   47.7430 C.ar      1 SUB1       -0.069
      6 CP6        -0.1510   44.0450   49.1040 C.ar      1 SUB1       -0.060
      7 C1          1.2050   44.9530   51.0010 C.3       1 SUB1        0.001
      8 C2          1.4930   43.6330   51.6780 C.3       1 SUB1        0.041
      9 N1          1.8830   43.7210   53.0910 N.am      1 SUB1       -0.283
     10 C3          1.9650   42.6430   53.8630 C.2       1 SUB1        0.207
     11 O1          1.7290   41.5160   53.4220 O.2       1 SUB1       -0.394
     12 C4          2.4090   42.8350   55.3130 C.3       1 SUB1        0.154
     13 O2          1.9130   44.0670   55.8320 O.3       1 SUB1       -0.309
     14 P           2.8310   45.3760   55.8720 P.3       1 SUB1        0.154
     15 O3          2.4290   46.2660   54.7550 O.co2     1 SUB1       -0.543
     16 O4          4.2530   44.9690   55.9870 O.co2     1 SUB1       -0.543
     17 C5          2.4930   46.0840   57.1370 C.3       1 SUB1        0.106
     18 C6          3.1840   47.4680   57.2620 C.3       1 SUB1        0.009
     19 CR1         2.8780   48.2080   58.5710 C.ar      1 SUB1       -0.041
     20 CR2         3.7320   48.1050   59.6700 C.ar      1 SUB1       -0.060
     21 CR3         3.4410   48.7710   60.8850 C.ar      1 SUB1       -0.069
     22 CR4         2.2770   49.5490   61.0000 C.ar      1 SUB1       -0.069
     23 CR5         1.4180   49.6540   59.8950 C.ar      1 SUB1       -0.069
     24 CR6         1.7270   48.9890   58.7020 C.ar      1 SUB1       -0.060
     25 N2          1.0620   46.3130   57.3530 N.am      1 SUB1       -0.276
     26 C7          0.3640   45.7610   58.3510 C.2       1 SUB1        0.177
     27 O5          0.8420   44.9520   59.1510 O.2       1 SUB1       -0.397
     28 C8         -1.1120   46.1430   58.4520 C.3       1 SUB1        0.040
     29 C9         -1.6610   46.0580   59.9190 C.3       1 SUB1       -0.025
     30 C10        -0.8230   46.9040   60.8740 C.3       1 SUB1       -0.012
     31 C11        -1.3660   46.8920   62.3060 C.2       1 SUB1        0.028
     32 O6         -1.1790   47.9010   63.0130 O.co2     1 SUB1       -0.567
     33 O7         -1.9530   45.8750   62.7330 O.co2     1 SUB1       -0.567
     34 H21         2.6588   45.9053   48.9097 H         1 SUB1        0.056
     35 H31         2.3145   45.4371   46.4840 H         1 SUB1        0.060
     36 H41         0.3858   44.0563   45.7530 H         1 SUB1        0.056
     37 H51        -1.2007   43.1698   47.4280 H         1 SUB1        0.060
     38 H61        -0.8515   43.6578   49.8351 H         1 SUB1        0.056
     39 H71         2.0811   45.6042   51.1368 H         1 SUB1        0.045
     40 H72         0.3258   45.4009   51.4872 H         1 SUB1        0.045
     41 H81         0.5865   43.0121   51.6255 H         1 SUB1        0.054
     42 H82         2.3165   43.1406   51.1401 H         1 SUB1        0.054
     43 H91         2.0926   44.6169   53.4828 H         1 SUB1        0.185
     44 H121        2.0179   42.0122   55.9294 H         1 SUB1        0.086
     45 H122        3.5078   42.8509   55.3621 H         1 SUB1        0.086
     46 H171        2.8432   45.4455   57.9614 H         1 SUB1        0.064
     47 H181        4.2730   47.3236   57.2065 H         1 SUB1        0.045
     48 H182        2.8473   48.1055   56.4312 H         1 SUB1        0.045
     49 H201        4.6320   47.5058   59.5922 H         1 SUB1        0.056
     50 H211        4.1171   48.6805   61.7274 H         1 SUB1        0.060
     51 H221        2.0459   50.0602   61.9275 H         1 SUB1        0.056
     52 H231        0.5152   50.2500   59.9651 H         1 SUB1        0.060
     53 H241        1.0546   49.0828   57.8569 H         1 SUB1        0.056
     54 H251        0.5799   46.9165   56.7179 H         1 SUB1        0.186
     55 H281       -1.2395   47.1771   58.0995 H         1 SUB1        0.051
     56 H282       -1.7031   45.4580   57.8264 H         1 SUB1        0.051
     57 H291       -2.6963   46.4288   59.9433 H         1 SUB1        0.032
     58 H292       -1.6288   45.0130   60.2607 H         1 SUB1        0.032
     59 H301        0.2037   46.5099   60.8952 H         1 SUB1        0.049
     60 H302       -0.8178   47.9454   60.5199 H         1 SUB1        0.049
@<TRIPOS>BOND
     1    1    2 ar 
     2    1    6 ar 
     3    1    7 1  
     4    2    3 ar 
     5    3    4 ar 
     6    4    5 ar 
     7    5    6 ar 
     8    7    8 1  
     9    8    9 1  
    10    9   10 am 
    11   10   11 2  
    12   10   12 1  
    13   12   13 1  
    14   13   14 1  
    15   14   15 2  
    16   14   16 2  
    17   14   17 1  
    18   17   18 1  
    19   17   25 1  
    20   18   19 1  
    21   19   20 ar 
    22   19   24 ar 
    23   20   21 ar 
    24   21   22 ar 
    25   22   23 ar 
    26   23   24 ar 
    27   25   26 am 
    28   26   27 2  
    29   26   28 1  
    30   28   29 1  
    31   29   30 1  
    32   30   31 1  
    33   31   32 2  
    34   31   33 2  
    35    2   34 1  
    36    3   35 1  
    37    4   36 1  
    38    5   37 1  
    39    6   38 1  
    40    7   39 1  
    41    7   40 1  
    42    8   41 1  
    43    8   42 1  
    44    9   43 1  
    45   12   44 1  
    46   12   45 1  
    47   17   46 1  
    48   18   47 1  
    49   18   48 1  
    50   20   49 1  
    51   21   50 1  
    52   22   51 1  
    53   23   52 1  
    54   24   53 1  
    55   25   54 1  
    56   28   55 1  
    57   28   56 1  
    58   29   57 1  
    59   29   58 1  
    60   30   59 1  
    61   30   60 1  
@<TRIPOS>SUBSTRUCTURE
     1 SUB1        1 GROUP

