1mjj_ligand
  -I-interpret- 

 60 61  0  0  0  0  0  0  0  0999 V2000
    0.9290   44.8040   49.5320 C   0  0  0  0  0
    1.8140   45.3060   48.5900 C   0  0  0  0  0
    1.6210   45.0410   47.2170 C   0  0  0  0  0
    0.5340   44.2670   46.8060 C   0  0  0  0  0
   -0.3540   43.7690   47.7430 C   0  0  0  0  0
   -0.1510   44.0450   49.1040 C   0  0  0  0  0
    1.2050   44.9530   51.0010 C   0  0  0  0  0
    1.4930   43.6330   51.6780 C   0  0  0  0  0
    1.8830   43.7210   53.0910 N   0  0  0  0  0
    1.9650   42.6430   53.8630 C   0  0  0  0  0
    1.7290   41.5160   53.4220 O   0  0  0  0  0
    2.4090   42.8350   55.3130 C   0  0  0  0  0
    1.9130   44.0670   55.8320 O   0  0  0  0  0
    2.8310   45.3760   55.8720 P   0  0  0  0  0
    2.4290   46.2660   54.7550 O   0  5  0  0  0
    4.2530   44.9690   55.9870 O   0  0  0  0  0
    2.4930   46.0840   57.1370 C   0  0  0  0  0
    3.1840   47.4680   57.2620 C   0  0  0  0  0
    2.8780   48.2080   58.5710 C   0  0  0  0  0
    3.7320   48.1050   59.6700 C   0  0  0  0  0
    3.4410   48.7710   60.8850 C   0  0  0  0  0
    2.2770   49.5490   61.0000 C   0  0  0  0  0
    1.4180   49.6540   59.8950 C   0  0  0  0  0
    1.7270   48.9890   58.7020 C   0  0  0  0  0
    1.0620   46.3130   57.3530 N   0  0  0  0  0
    0.3640   45.7610   58.3510 C   0  0  0  0  0
    0.8420   44.9520   59.1510 O   0  0  0  0  0
   -1.1120   46.1430   58.4520 C   0  0  0  0  0
   -1.6610   46.0580   59.9190 C   0  0  0  0  0
   -0.8230   46.9040   60.8740 C   0  0  0  0  0
   -1.3660   46.8920   62.3060 C   0  0  0  0  0
   -1.1790   47.9010   63.0130 O   0  0  0  0  0
   -1.9530   45.8750   62.7330 O   0  5  0  0  0
    2.6588   45.9053   48.9097 H   0  0  0  0  0
    2.3145   45.4371   46.4840 H   0  0  0  0  0
    0.3858   44.0563   45.7530 H   0  0  0  0  0
   -1.2007   43.1698   47.4280 H   0  0  0  0  0
   -0.8515   43.6578   49.8351 H   0  0  0  0  0
    2.0811   45.6042   51.1368 H   0  0  0  0  0
    0.3258   45.4009   51.4872 H   0  0  0  0  0
    0.5865   43.0121   51.6255 H   0  0  0  0  0
    2.3165   43.1406   51.1401 H   0  0  0  0  0
    2.0926   44.6169   53.4828 H   0  0  0  0  0
    2.0179   42.0122   55.9294 H   0  0  0  0  0
    3.5078   42.8509   55.3621 H   0  0  0  0  0
    2.8432   45.4455   57.9614 H   0  0  0  0  0
    4.2730   47.3236   57.2065 H   0  0  0  0  0
    2.8473   48.1055   56.4312 H   0  0  0  0  0
    4.6320   47.5058   59.5922 H   0  0  0  0  0
    4.1171   48.6805   61.7274 H   0  0  0  0  0
    2.0459   50.0602   61.9275 H   0  0  0  0  0
    0.5152   50.2500   59.9651 H   0  0  0  0  0
    1.0546   49.0828   57.8569 H   0  0  0  0  0
    0.5799   46.9165   56.7179 H   0  0  0  0  0
   -1.2395   47.1771   58.0995 H   0  0  0  0  0
   -1.7031   45.4580   57.8264 H   0  0  0  0  0
   -2.6963   46.4288   59.9433 H   0  0  0  0  0
   -1.6288   45.0130   60.2607 H   0  0  0  0  0
    0.2037   46.5099   60.8952 H   0  0  0  0  0
   -0.8178   47.9454   60.5199 H   0  0  0  0  0
  1  2  4  0  0  0
  1  6  4  0  0  0
  1  7  1  0  0  0
  2  3  4  0  0  0
  3  4  4  0  0  0
  4  5  4  0  0  0
  5  6  4  0  0  0
  7  8  1  0  0  0
  8  9  1  0  0  0
  9 10  1  0  0  0
 10 11  2  0  0  0
 10 12  1  0  0  0
 12 13  1  0  0  0
 13 14  1  0  0  0
 14 15  1  0  0  0
 14 16  2  0  0  0
 14 17  1  0  0  0
 17 18  1  0  0  0
 17 25  1  0  0  0
 18 19  1  0  0  0
 19 20  4  0  0  0
 19 24  4  0  0  0
 20 21  4  0  0  0
 21 22  4  0  0  0
 22 23  4  0  0  0
 23 24  4  0  0  0
 25 26  1  0  0  0
 26 27  2  0  0  0
 26 28  1  0  0  0
 28 29  1  0  0  0
 29 30  1  0  0  0
 30 31  1  0  0  0
 31 32  2  0  0  0
 31 33  1  0  0  0
  2 34  1  0  0  0
  3 35  1  0  0  0
  4 36  1  0  0  0
  5 37  1  0  0  0
  6 38  1  0  0  0
  7 39  1  0  0  0
  7 40  1  0  0  0
  8 41  1  0  0  0
  8 42  1  0  0  0
  9 43  1  0  0  0
 12 44  1  0  0  0
 12 45  1  0  0  0
 17 46  1  0  0  0
 18 47  1  0  0  0
 18 48  1  0  0  0
 20 49  1  0  0  0
 21 50  1  0  0  0
 22 51  1  0  0  0
 23 52  1  0  0  0
 24 53  1  0  0  0
 25 54  1  0  0  0
 28 55  1  0  0  0
 28 56  1  0  0  0
 29 57  1  0  0  0
 29 58  1  0  0  0
 30 59  1  0  0  0
 30 60  1  0  0  0
M  END
$$$$
