1af6_ligand
  -I-interpret- 

 45 46  0  0  0  0  0  0  0  0999 V2000
   12.4190   39.2880   85.7670 C   0  0  0  0  0
   13.0120   37.8620   85.6750 C   0  0  0  0  0
   14.4260   37.9190   85.0500 C   0  0  0  0  0
   14.3370   38.5690   83.6650 C   0  0  0  0  0
   13.5240   39.8610   83.6470 C   0  0  0  0  0
   13.0830   40.1780   82.2090 C   0  0  0  0  0
   13.0850   37.3160   86.9890 O   0  0  0  0  0
   14.9570   36.5940   84.9620 O   0  0  0  0  0
   15.6480   38.8500   83.1520 O   0  0  0  0  0
   12.3140   39.8530   84.4570 O   0  0  0  0  0
   12.3130   41.3720   82.2470 O   0  0  0  0  0
   11.4430   40.9520   87.8580 C   0  0  0  0  0
   12.8040   41.2550   87.1810 C   0  0  0  0  0
   13.9170   41.7790   88.1490 C   0  0  0  0  0
   14.8430   42.4840   87.1270 C   0  0  0  0  0
   13.7690   43.2140   86.2970 C   0  0  0  0  0
   14.2040   43.6460   84.9250 C   0  0  0  0  0
   10.9650   42.0370   88.6640 O   0  0  0  0  0
   13.2970   40.0420   86.5380 O   0  0  0  0  0
   14.5930   40.6720   88.7730 O   0  0  0  0  0
   15.7700   43.3640   87.7470 O   0  0  0  0  0
   12.6650   42.2850   86.1410 O   0  0  0  0  0
   13.2820   44.6090   84.4310 O   0  0  0  0  0
   11.4309   39.2671   86.2497 H   0  0  0  0  0
   12.3605   37.2233   85.0606 H   0  0  0  0  0
   15.0920   38.5149   85.6912 H   0  0  0  0  0
   13.8571   37.8498   82.9850 H   0  0  0  0  0
   14.1668   40.6700   84.0242 H   0  0  0  0  0
   13.9622   40.3320   81.5661 H   0  0  0  0  0
   12.4658   39.3593   81.8106 H   0  0  0  0  0
   13.6446   37.8632   87.5275 H   0  0  0  0  0
   15.0020   36.2137   85.8313 H   0  0  0  0  0
   16.1662   38.0538   83.1572 H   0  0  0  0  0
   11.5550   41.2411   82.8044 H   0  0  0  0  0
   10.6931   40.7515   87.0787 H   0  0  0  0  0
   11.5549   40.0706   88.5064 H   0  0  0  0  0
   13.5316   42.4612   88.9210 H   0  0  0  0  0
   15.4114   41.7642   86.5198 H   0  0  0  0  0
   13.4265   44.0985   86.8540 H   0  0  0  0  0
   15.2047   44.0999   84.9740 H   0  0  0  0  0
   14.2174   42.7810   84.2456 H   0  0  0  0  0
   10.1319   41.7980   89.0529 H   0  0  0  0  0
   14.8503   40.0441   88.1082 H   0  0  0  0  0
   16.4036   42.8576   88.2415 H   0  0  0  0  0
   13.5507   44.8870   83.5633 H   0  0  0  0  0
  1  2  1  0  0  0
  1 10  1  0  0  0
  2  3  1  0  0  0
  2  7  1  0  0  0
  3  4  1  0  0  0
  3  8  1  0  0  0
  5  4  1  0  0  0
  4  9  1  0  0  0
  5  6  1  0  0  0
 10  5  1  0  0  0
  6 11  1  0  0  0
 13 12  1  0  0  0
 12 18  1  0  0  0
 13 14  1  0  0  0
 19 13  1  0  0  0
 13 22  1  0  0  0
 14 15  1  0  0  0
 14 20  1  0  0  0
 16 15  1  0  0  0
 15 21  1  0  0  0
 16 17  1  0  0  0
 22 16  1  0  0  0
 17 23  1  0  0  0
 19  1  1  0  0  0
  1 24  1  0  0  0
  2 25  1  0  0  0
  3 26  1  0  0  0
  4 27  1  0  0  0
  5 28  1  0  0  0
  6 29  1  0  0  0
  6 30  1  0  0  0
  7 31  1  0  0  0
  8 32  1  0  0  0
  9 33  1  0  0  0
 11 34  1  0  0  0
 12 35  1  0  0  0
 12 36  1  0  0  0
 14 37  1  0  0  0
 15 38  1  0  0  0
 16 39  1  0  0  0
 17 40  1  0  0  0
 17 41  1  0  0  0
 18 42  1  0  0  0
 20 43  1  0  0  0
 21 44  1  0  0  0
 23 45  1  0  0  0
M  END
$$$$
