### 
### Created by X-TOOL on Tue Oct 25 02:08:04 2005
### 

@<TRIPOS>MOLECULE
1af6_ligand
   45    46     1     0     0
SMALL
GAST_HUCK


@<TRIPOS>ATOM
      1 C1         12.4190   39.2880   85.7670 C.3       1 SUB1        0.191
      2 C2         13.0120   37.8620   85.6750 C.3       1 SUB1        0.134
      3 C3         14.4260   37.9190   85.0500 C.3       1 SUB1        0.114
      4 C4         14.3370   38.5690   83.6650 C.3       1 SUB1        0.112
      5 C5         13.5240   39.8610   83.6470 C.3       1 SUB1        0.113
      6 C6         13.0830   40.1780   82.2090 C.3       1 SUB1        0.073
      7 O2         13.0850   37.3160   86.9890 O.3       1 SUB1       -0.384
      8 O3         14.9570   36.5940   84.9620 O.3       1 SUB1       -0.386
      9 O4         15.6480   38.8500   83.1520 O.3       1 SUB1       -0.387
     10 O5         12.3140   39.8530   84.4570 O.3       1 SUB1       -0.340
     11 O6         12.3130   41.3720   82.2470 O.3       1 SUB1       -0.392
     12 C1         11.4430   40.9520   87.8580 C.3       1 SUB1        0.101
     13 C2         12.8040   41.2550   87.1810 C.3       1 SUB1        0.225
     14 C3         13.9170   41.7790   88.1490 C.3       1 SUB1        0.140
     15 C4         14.8430   42.4840   87.1270 C.3       1 SUB1        0.115
     16 C5         13.7690   43.2140   86.2970 C.3       1 SUB1        0.113
     17 C6         14.2040   43.6460   84.9250 C.3       1 SUB1        0.073
     18 O1         10.9650   42.0370   88.6640 O.3       1 SUB1       -0.390
     19 O2         13.2970   40.0420   86.5380 O.3       1 SUB1       -0.312
     20 O3         14.5930   40.6720   88.7730 O.3       1 SUB1       -0.384
     21 O4         15.7700   43.3640   87.7470 O.3       1 SUB1       -0.386
     22 O5         12.6650   42.2850   86.1410 O.3       1 SUB1       -0.336
     23 O6         13.2820   44.6090   84.4310 O.3       1 SUB1       -0.392
     24 H11        11.4309   39.2671   86.2497 H         1 SUB1        0.094
     25 H21        12.3605   37.2233   85.0606 H         1 SUB1        0.067
     26 H31        15.0920   38.5149   85.6912 H         1 SUB1        0.065
     27 H41        13.8571   37.8498   82.9850 H         1 SUB1        0.065
     28 H51        14.1668   40.6700   84.0242 H         1 SUB1        0.065
     29 H61        13.9622   40.3320   81.5661 H         1 SUB1        0.058
     30 H62        12.4658   39.3593   81.8106 H         1 SUB1        0.058
     31 H71        13.6446   37.8632   87.5275 H         1 SUB1        0.210
     32 H81        15.0020   36.2137   85.8313 H         1 SUB1        0.210
     33 H91        16.1662   38.0538   83.1572 H         1 SUB1        0.210
     34 H111       11.5550   41.2411   82.8044 H         1 SUB1        0.209
     35 H121       10.6931   40.7515   87.0787 H         1 SUB1        0.061
     36 H122       11.5549   40.0706   88.5064 H         1 SUB1        0.061
     37 H141       13.5316   42.4612   88.9210 H         1 SUB1        0.068
     38 H151       15.4114   41.7642   86.5198 H         1 SUB1        0.065
     39 H161       13.4265   44.0985   86.8540 H         1 SUB1        0.065
     40 H171       15.2047   44.0999   84.9740 H         1 SUB1        0.058
     41 H172       14.2174   42.7810   84.2456 H         1 SUB1        0.058
     42 H181       10.1319   41.7980   89.0529 H         1 SUB1        0.210
     43 H201       14.8503   40.0441   88.1082 H         1 SUB1        0.210
     44 H211       16.4036   42.8576   88.2415 H         1 SUB1        0.210
     45 H231       13.5507   44.8870   83.5633 H         1 SUB1        0.209
@<TRIPOS>BOND
     1    1    2 1  
     2    1   10 1  
     3    2    3 1  
     4    2    7 1  
     5    3    4 1  
     6    3    8 1  
     7    5    4 1  
     8    4    9 1  
     9    5    6 1  
    10   10    5 1  
    11    6   11 1  
    12   13   12 1  
    13   12   18 1  
    14   13   14 1  
    15   19   13 1  
    16   13   22 1  
    17   14   15 1  
    18   14   20 1  
    19   16   15 1  
    20   15   21 1  
    21   16   17 1  
    22   22   16 1  
    23   17   23 1  
    24   19    1 1  
    25    1   24 1  
    26    2   25 1  
    27    3   26 1  
    28    4   27 1  
    29    5   28 1  
    30    6   29 1  
    31    6   30 1  
    32    7   31 1  
    33    8   32 1  
    34    9   33 1  
    35   11   34 1  
    36   12   35 1  
    37   12   36 1  
    38   14   37 1  
    39   15   38 1  
    40   16   39 1  
    41   17   40 1  
    42   17   41 1  
    43   18   42 1  
    44   20   43 1  
    45   21   44 1  
    46   23   45 1  
@<TRIPOS>SUBSTRUCTURE
     1 SUB1        1 GROUP

