### 
### Created by X-TOOL on Mon Oct 24 23:51:41 2005
### 

@<TRIPOS>MOLECULE
1qf1_ligand
   53    53     1     0     0
SMALL
GAST_HUCK


@<TRIPOS>ATOM
      1 H21        33.4052   43.3068   -7.7625 H         1 SUB1        0.105
      2 SG         34.1310   43.3010   -7.0630 S.3       1 SUB1       -0.153
      3 CA1        34.4690   41.5490   -6.5380 C.3       1 SUB1        0.091
      4 CB1        35.1010   40.6960   -7.6440 C.3       1 SUB1       -0.024
      5 CG1        34.1900   39.6960   -8.2710 C.3       1 SUB1       -0.050
      6 CD1        33.8010   38.6400   -7.2630 C.3       1 SUB1       -0.053
      7 CE1        32.7830   37.6990   -7.8710 C.3       1 SUB1       -0.056
      8 CF1        32.4120   36.6230   -6.9030 C.3       1 SUB1       -0.065
      9 C1         35.5610   41.8690   -5.5230 C.2       1 SUB1        0.191
     10 O1         36.6450   42.3190   -5.9160 O.2       1 SUB1       -0.396
     11 N2         35.2970   41.6760   -4.2370 N.am      1 SUB1       -0.263
     12 CA2        36.3130   42.0200   -3.2480 C.3       1 SUB1        0.140
     13 CB2        35.7380   42.0520   -1.8300 C.3       1 SUB1        0.021
     14 CG2        36.6050   42.7960   -0.8590 C.ar      1 SUB1       -0.039
     15 CD3        36.9100   44.1430   -1.0760 C.ar      1 SUB1       -0.060
     16 CD4        37.1720   42.1470    0.2340 C.ar      1 SUB1       -0.060
     17 CE3        37.7740   44.8300   -0.2190 C.ar      1 SUB1       -0.069
     18 CE4        38.0400   42.8280    1.0980 C.ar      1 SUB1       -0.069
     19 CZ2        38.3400   44.1690    0.8660 C.ar      1 SUB1       -0.069
     20 C2         37.5570   41.1310   -3.2890 C.2       1 SUB1        0.207
     21 O2         38.6880   41.6340   -3.2900 O.2       1 SUB1       -0.394
     22 N3         37.3470   39.8200   -3.3240 N.am      1 SUB1       -0.268
     23 CA3        38.4450   38.8600   -3.3560 C.3       1 SUB1        0.079
     24 CB3        38.3580   37.9350   -2.1490 C.3       1 SUB1       -0.030
     25 C3         38.4340   38.0570   -4.6560 C.2       1 SUB1        0.053
     26 O3         37.3870   38.0180   -5.3340 O.co2     1 SUB1       -0.564
     27 OXT        39.4860   37.5040   -5.0180 O.co2     1 SUB1       -0.564
     28 H31        33.5866   41.0497   -6.1113 H         1 SUB1        0.065
     29 H41        35.9547   40.1544   -7.2106 H         1 SUB1        0.030
     30 H42        35.4589   41.3729   -8.4337 H         1 SUB1        0.030
     31 H51        34.7034   39.2179   -9.1182 H         1 SUB1        0.027
     32 H52        33.2841   40.2055   -8.6313 H         1 SUB1        0.027
     33 H61        33.3662   39.1244   -6.3763 H         1 SUB1        0.026
     34 H62        34.6945   38.0700   -6.9684 H         1 SUB1        0.026
     35 H71        33.2105   37.2398   -8.7745 H         1 SUB1        0.026
     36 H72        31.8812   38.2683   -8.1406 H         1 SUB1        0.026
     37 H81        31.6727   35.9526   -7.3656 H         1 SUB1        0.023
     38 H82        31.9804   37.0764   -5.9985 H         1 SUB1        0.023
     39 H83        33.3097   36.0478   -6.6323 H         1 SUB1        0.023
     40 H111       34.4156   41.3007   -3.9502 H         1 SUB1        0.189
     41 H121       36.6456   43.0408   -3.4873 H         1 SUB1        0.082
     42 H131       35.6240   41.0170   -1.4753 H         1 SUB1        0.047
     43 H132       34.7523   42.5390   -1.8631 H         1 SUB1        0.047
     44 H151       36.4704   44.6615   -1.9204 H         1 SUB1        0.056
     45 H161       36.9398   41.1044    0.4187 H         1 SUB1        0.056
     46 H171       38.0022   45.8743   -0.3992 H         1 SUB1        0.060
     47 H181       38.4774   42.3126    1.9454 H         1 SUB1        0.060
     48 H191       39.0142   44.6967    1.5309 H         1 SUB1        0.056
     49 H221       36.4065   39.4802   -3.3286 H         1 SUB1        0.190
     50 H231       39.3933   39.4148   -3.3022 H         1 SUB1        0.077
     51 H241       39.1882   37.2140   -2.1790 H         1 SUB1        0.029
     52 H242       37.4009   37.3932   -2.1704 H         1 SUB1        0.029
     53 H243       38.4221   38.5297   -1.2259 H         1 SUB1        0.029
@<TRIPOS>BOND
     1    2    3 1  
     2    3    9 1  
     3    3    4 1  
     4    4    5 1  
     5    5    6 1  
     6    6    7 1  
     7    7    8 1  
     8    9   11 am 
     9    9   10 2  
    10   11   12 1  
    11   12   20 1  
    12   12   13 1  
    13   13   14 1  
    14   14   16 ar 
    15   14   15 ar 
    16   15   17 ar 
    17   17   19 ar 
    18   19   18 ar 
    19   18   16 ar 
    20   20   22 am 
    21   20   21 2  
    22   22   23 1  
    23   23   25 1  
    24   23   24 1  
    25   25   27 2  
    26   25   26 2  
    27    2    1 1  
    28    3   28 1  
    29    4   29 1  
    30    4   30 1  
    31    5   31 1  
    32    5   32 1  
    33    6   33 1  
    34    6   34 1  
    35    7   35 1  
    36    7   36 1  
    37    8   37 1  
    38    8   38 1  
    39    8   39 1  
    40   11   40 1  
    41   12   41 1  
    42   13   42 1  
    43   13   43 1  
    44   15   44 1  
    45   16   45 1  
    46   17   46 1  
    47   18   47 1  
    48   19   48 1  
    49   22   49 1  
    50   23   50 1  
    51   24   51 1  
    52   24   52 1  
    53   24   53 1  
@<TRIPOS>SUBSTRUCTURE
     1 SUB1        1 GROUP

