### 
### Created by X-TOOL on Mon Oct 24 23:58:10 2005
### 

@<TRIPOS>MOLECULE
1k9s_ligand
   36    38     1     0     0
SMALL
GAST_HUCK


@<TRIPOS>ATOM
      1 N1        144.5390   70.2480   64.7450 N.ar      1 SUB1       -0.279
      2 C2        143.7350   69.6980   63.7190 C.ar      1 SUB1        0.121
      3 N3        143.6510   68.3540   63.5120 N.ar      1 SUB1       -0.202
      4 C4        144.4160   67.6010   64.4170 C.ar      1 SUB1        0.178
      5 C5        145.2260   68.0640   65.4770 C.ar      1 SUB1        0.235
      6 C6        145.3290   69.4840   65.6940 C.ar      1 SUB1        0.221
      7 N6        146.0140   70.0600   66.5760 N.pl3     1 SUB1       -0.277
      8 N7        145.8110   67.0050   66.1390 N.pl3     1 SUB1       -0.158
      9 N8        145.3830   65.9490   65.5000 N.2       1 SUB1       -0.121
     10 C9        144.5380   66.2150   64.4360 C.2       1 SUB1        0.158
     11 C1'       144.0250   65.0110   63.6230 C.3       1 SUB1        0.160
     12 C2'       143.1050   65.3250   62.4020 C.3       1 SUB1        0.128
     13 O2'       141.8420   64.7020   62.5740 O.3       1 SUB1       -0.383
     14 C3'       143.9290   64.7870   61.1740 C.3       1 SUB1        0.115
     15 O3'       143.4490   63.5310   60.6600 O.3       1 SUB1       -0.386
     16 C4'       145.3520   64.6560   61.6690 C.3       1 SUB1        0.115
     17 O4'       145.1990   64.3580   63.0970 O.3       1 SUB1       -0.342
     18 C5'       146.1880   65.9620   61.4280 C.3       1 SUB1        0.073
     19 O5'       147.3460   66.0020   62.2670 O.3       1 SUB1       -0.392
     20 C11       144.6170   71.6780   64.7690 C.3       1 SUB1        0.014
     21 H21       143.1693   70.3654   63.0789 H         1 SUB1        0.130
     22 H71       146.5691   69.5038   67.2419 H         1 SUB1        0.216
     23 H72       146.0204   71.0884   66.6331 H         1 SUB1        0.216
     24 H81       146.4420   67.0390   66.9524 H         1 SUB1        0.294
     25 H111      143.4905   64.3285   64.3001 H         1 SUB1        0.093
     26 H121      142.9561   66.4088   62.2876 H         1 SUB1        0.069
     27 H131      141.9606   63.7620   62.6433 H         1 SUB1        0.210
     28 H141      143.9005   65.5282   60.3617 H         1 SUB1        0.065
     29 H151      142.5482   63.6302   60.3750 H         1 SUB1        0.210
     30 H161      145.8648   63.8301   61.1544 H         1 SUB1        0.065
     31 H181      146.5177   65.9954   60.3792 H         1 SUB1        0.058
     32 H182      145.5653   66.8402   61.6535 H         1 SUB1        0.058
     33 H191      147.0767   65.9793   63.1778 H         1 SUB1        0.209
     34 H201      143.9582   72.0858   63.9882 H         1 SUB1        0.042
     35 H202      144.2877   72.0552   65.7484 H         1 SUB1        0.042
     36 H203      145.6497   72.0007   64.5707 H         1 SUB1        0.042
@<TRIPOS>BOND
     1    1    2 ar 
     2    1    6 ar 
     3    1   20 1  
     4    2    3 ar 
     5    3    4 ar 
     6    4    5 ar 
     7    4   10 1  
     8    5    6 ar 
     9    5    8 1  
    10    6    7 1  
    11    8    9 1  
    12    9   10 2  
    13   10   11 1  
    14   11   12 1  
    15   11   17 1  
    16   12   13 1  
    17   12   14 1  
    18   14   15 1  
    19   14   16 1  
    20   16   17 1  
    21   16   18 1  
    22   18   19 1  
    23    2   21 1  
    24    7   22 1  
    25    7   23 1  
    26    8   24 1  
    27   11   25 1  
    28   12   26 1  
    29   13   27 1  
    30   14   28 1  
    31   15   29 1  
    32   16   30 1  
    33   18   31 1  
    34   18   32 1  
    35   19   33 1  
    36   20   34 1  
    37   20   35 1  
    38   20   36 1  
@<TRIPOS>SUBSTRUCTURE
     1 SUB1        1 GROUP

