1k9s_ligand
  -I-interpret- 

 36 38  0  0  0  0  0  0  0  0999 V2000
  144.5390   70.2480   64.7450 N   0  0  0  0  0
  143.7350   69.6980   63.7190 C   0  0  0  0  0
  143.6510   68.3540   63.5120 N   0  0  0  0  0
  144.4160   67.6010   64.4170 C   0  0  0  0  0
  145.2260   68.0640   65.4770 C   0  0  0  0  0
  145.3290   69.4840   65.6940 C   0  0  0  0  0
  146.0140   70.0600   66.5760 N   0  0  0  0  0
  145.8110   67.0050   66.1390 N   0  0  0  0  0
  145.3830   65.9490   65.5000 N   0  0  0  0  0
  144.5380   66.2150   64.4360 C   0  0  0  0  0
  144.0250   65.0110   63.6230 C   0  0  0  0  0
  143.1050   65.3250   62.4020 C   0  0  0  0  0
  141.8420   64.7020   62.5740 O   0  0  0  0  0
  143.9290   64.7870   61.1740 C   0  0  0  0  0
  143.4490   63.5310   60.6600 O   0  0  0  0  0
  145.3520   64.6560   61.6690 C   0  0  0  0  0
  145.1990   64.3580   63.0970 O   0  0  0  0  0
  146.1880   65.9620   61.4280 C   0  0  0  0  0
  147.3460   66.0020   62.2670 O   0  0  0  0  0
  144.6170   71.6780   64.7690 C   0  0  0  0  0
  143.1693   70.3654   63.0789 H   0  0  0  0  0
  146.5691   69.5038   67.2419 H   0  0  0  0  0
  146.0204   71.0884   66.6331 H   0  0  0  0  0
  146.4420   67.0390   66.9524 H   0  0  0  0  0
  143.4905   64.3285   64.3001 H   0  0  0  0  0
  142.9561   66.4088   62.2876 H   0  0  0  0  0
  141.9606   63.7620   62.6433 H   0  0  0  0  0
  143.9005   65.5282   60.3617 H   0  0  0  0  0
  142.5482   63.6302   60.3750 H   0  0  0  0  0
  145.8648   63.8301   61.1544 H   0  0  0  0  0
  146.5177   65.9954   60.3792 H   0  0  0  0  0
  145.5653   66.8402   61.6535 H   0  0  0  0  0
  147.0767   65.9793   63.1778 H   0  0  0  0  0
  143.9582   72.0858   63.9882 H   0  0  0  0  0
  144.2877   72.0552   65.7484 H   0  0  0  0  0
  145.6497   72.0007   64.5707 H   0  0  0  0  0
  1  2  4  0  0  0
  1  6  4  0  0  0
  1 20  1  0  0  0
  2  3  4  0  0  0
  3  4  4  0  0  0
  4  5  4  0  0  0
  4 10  1  0  0  0
  5  6  4  0  0  0
  5  8  1  0  0  0
  6  7  1  0  0  0
  8  9  1  0  0  0
  9 10  2  0  0  0
 10 11  1  0  0  0
 11 12  1  0  0  0
 11 17  1  0  0  0
 12 13  1  0  0  0
 12 14  1  0  0  0
 14 15  1  0  0  0
 14 16  1  0  0  0
 16 17  1  0  0  0
 16 18  1  0  0  0
 18 19  1  0  0  0
  2 21  1  0  0  0
  7 22  1  0  0  0
  7 23  1  0  0  0
  8 24  1  0  0  0
 11 25  1  0  0  0
 12 26  1  0  0  0
 13 27  1  0  0  0
 14 28  1  0  0  0
 15 29  1  0  0  0
 16 30  1  0  0  0
 18 31  1  0  0  0
 18 32  1  0  0  0
 19 33  1  0  0  0
 20 34  1  0  0  0
 20 35  1  0  0  0
 20 36  1  0  0  0
M  END
$$$$
