1xt8_ligand
  -I-interpret- 

 14 13  0  0  0  0  0  0  0  0999 V2000
   -8.7320   82.3120  -31.0620 N   0  3  0  0  0
   -7.9630   81.7460  -29.8920 C   0  0  0  0  0
   -8.3110   80.2840  -29.6380 C   0  0  0  0  0
   -7.9460   79.7080  -28.6100 O   0  0  0  0  0
   -8.2280   82.5590  -28.6330 C   0  0  0  0  0
   -9.9770   82.5870  -28.1410 S   0  0  0  0  0
   -8.9770   79.6390  -30.4560 O   0  5  0  0  0
   -8.4751   83.2772  -31.1975 H   0  0  0  0  0
   -9.7207   82.2504  -30.8757 H   0  0  0  0  0
   -8.5134   81.7862  -31.8937 H   0  0  0  0  0
   -6.8904   81.8083  -30.1277 H   0  0  0  0  0
   -7.9003   83.5937  -28.8116 H   0  0  0  0  0
   -7.6418   82.1257  -27.8092 H   0  0  0  0  0
  -10.0807   83.1399  -27.3046 H   0  0  0  0  0
  1  2  1  0  0  0
  2  3  1  0  0  0
  2  5  1  0  0  0
  3  4  2  0  0  0
  3  7  1  0  0  0
  5  6  1  0  0  0
  1  8  1  0  0  0
  1  9  1  0  0  0
  1 10  1  0  0  0
  2 11  1  0  0  0
  5 12  1  0  0  0
  5 13  1  0  0  0
  6 14  1  0  0  0
M  END
$$$$
