### 
### Created by X-TOOL on Tue Oct 25 00:11:24 2005
### 

@<TRIPOS>MOLECULE
1xt8_ligand
   14    13     1     0     0
SMALL
GAST_HUCK


@<TRIPOS>ATOM
      1 N          -8.7320   82.3120  -31.0620 N.4       1 SUB1        0.239
      2 CA         -7.9630   81.7460  -29.8920 C.3       1 SUB1        0.024
      3 C          -8.3110   80.2840  -29.6380 C.2       1 SUB1        0.077
      4 O          -7.9460   79.7080  -28.6100 O.co2     1 SUB1       -0.561
      5 CB         -8.2280   82.5590  -28.6330 C.3       1 SUB1        0.045
      6 SG         -9.9770   82.5870  -28.1410 S.3       1 SUB1       -0.169
      7 OXT        -8.9770   79.6390  -30.4560 O.co2     1 SUB1       -0.561
      8 H11        -8.4751   83.2772  -31.1975 H         1 SUB1        0.202
      9 H12        -9.7207   82.2504  -30.8757 H         1 SUB1        0.202
     10 H13        -8.5134   81.7862  -31.8937 H         1 SUB1        0.202
     11 H21        -6.8904   81.8083  -30.1277 H         1 SUB1        0.108
     12 H51        -7.9003   83.5937  -28.8116 H         1 SUB1        0.047
     13 H52        -7.6418   82.1257  -27.8092 H         1 SUB1        0.047
     14 H61       -10.0807   83.1399  -27.3046 H         1 SUB1        0.102
@<TRIPOS>BOND
     1    1    2 1  
     2    2    3 1  
     3    2    5 1  
     4    3    4 2  
     5    3    7 2  
     6    5    6 1  
     7    1    8 1  
     8    1    9 1  
     9    1   10 1  
    10    2   11 1  
    11    5   12 1  
    12    5   13 1  
    13    6   14 1  
@<TRIPOS>SUBSTRUCTURE
     1 SUB1        1 GROUP

