### 
### Created by X-TOOL on Tue Oct 25 00:57:50 2005
### 

@<TRIPOS>MOLECULE
1ksn_ligand
   60    62     1     0     0
SMALL
GAST_HUCK


@<TRIPOS>ATOM
      1 C1          6.6430    0.2470   17.8810 C.ar      1 SUB1       -0.004
      2 C2          7.3750    0.8760   18.9420 C.ar      1 SUB1       -0.007
      3 C3          8.7800    0.5740   19.0640 C.ar      1 SUB1       -0.004
      4 C4          9.4060   -0.3310   18.1450 C.ar      1 SUB1        0.177
      5 N1          8.6940   -0.9280   17.1340 N.2       1 SUB1        0.087
      6 C6          7.3370   -0.6420   17.0070 C.ar      1 SUB1        0.177
      7 C7          6.7400    3.9330   21.2570 C.ar      1 SUB1       -0.043
      8 C8          5.3630    3.6970   21.6850 C.ar      1 SUB1        0.048
      9 C9          4.6930    2.5190   21.1940 C.ar      1 SUB1       -0.043
     10 C10         5.3450    1.6040   20.3140 C.ar      1 SUB1       -0.049
     11 C11         6.6950    1.8250   19.8820 C.ar      1 SUB1       -0.014
     12 C12         7.3700    2.9970   20.3700 C.ar      1 SUB1       -0.049
     13 C13         4.6220    4.5930   22.5660 C.2       1 SUB1        0.204
     14 N14         5.0990    5.8520   22.6160 N.am      1 SUB1       -0.281
     15 C15         4.4840    6.8990   23.3920 C.3       1 SUB1        0.061
     16 C16         3.8060    7.8740   22.4050 C.3       1 SUB1       -0.039
     17 C17         5.5890    7.5560   24.3010 C.3       1 SUB1        0.092
     18 C18         4.9640    8.6890   25.1360 C.2       1 SUB1        0.241
     19 O19         3.8600    8.2640   25.8080 O.3       1 SUB1       -0.280
     20 C20         6.8610    8.0770   23.4910 C.3       1 SUB1        0.004
     21 C23         8.4840    7.4690   25.4770 C.ar      1 SUB1       -0.005
     22 C24         9.7170    7.6990   26.2280 C.ar      1 SUB1        0.179
     23 C25        10.6090    8.7590   25.7890 C.ar      1 SUB1       -0.014
     24 C26        10.2870    9.5570   24.6450 C.ar      1 SUB1       -0.064
     25 C27         9.0690    9.3220   23.9130 C.ar      1 SUB1       -0.060
     26 C28         8.1480    8.2810   24.3060 C.ar      1 SUB1       -0.036
     27 C29        10.0580    6.8890   27.4000 C.cat     1 SUB1        0.315
     28 N30        11.3210    6.7490   27.8130 N.pl3     1 SUB1       -0.200
     29 N31         9.0740    6.2750   28.0810 N.pl3     1 SUB1       -0.200
     30 O32         5.3900    9.7910   25.1720 O.2       1 SUB1       -0.370
     31 O33         3.6160    4.2310   23.2050 O.2       1 SUB1       -0.386
     32 C34         3.0950    9.1320   26.6480 C.3       1 SUB1        0.066
     33 O1          9.2870   -1.7890   16.2600 O.2       1 SUB1        0.217
     34 H11         5.5854    0.4428   17.7460 H         1 SUB1        0.067
     35 H31         9.3646    1.0328   19.8532 H         1 SUB1        0.067
     36 H41        10.4627   -0.5484   18.2504 H         1 SUB1        0.119
     37 H61         6.7818   -1.1172   16.2064 H         1 SUB1        0.119
     38 H71         7.2800    4.8058   21.6057 H         1 SUB1        0.066
     39 H91         3.6715    2.3238   21.4999 H         1 SUB1        0.066
     40 H101        4.8111    0.7271   19.9661 H         1 SUB1        0.063
     41 H121        8.3914    3.1802   20.0567 H         1 SUB1        0.063
     42 H141        5.9201    6.0707   22.0888 H         1 SUB1        0.185
     43 H151        3.7096    6.4702   24.0450 H         1 SUB1        0.058
     44 H161        3.3250    8.6885   22.9664 H         1 SUB1        0.025
     45 H162        3.0472    7.3343   21.8194 H         1 SUB1        0.025
     46 H163        4.5629    8.2938   21.7261 H         1 SUB1        0.025
     47 H171        5.9446    6.7812   24.9961 H         1 SUB1        0.060
     48 H201        6.5961    9.0423   23.0350 H         1 SUB1        0.045
     49 H202        7.0777    7.3447   22.6994 H         1 SUB1        0.045
     50 H211        7.8068    6.6836   25.7926 H         1 SUB1        0.060
     51 H231       11.5274    8.9473   26.3333 H         1 SUB1        0.061
     52 H241       10.9635   10.3424   24.3279 H         1 SUB1        0.060
     53 H251        8.8392    9.9379   23.0511 H         1 SUB1        0.056
     54 H281       11.5314    6.1731   28.6407 H         1 SUB1        0.192
     55 H282       12.0842    7.2170   27.3037 H         1 SUB1        0.192
     56 H291        8.0958    6.3741   27.7741 H         1 SUB1        0.192
     57 H292        9.2986    5.7057   28.9095 H         1 SUB1        0.192
     58 H321        2.2541    8.5728   27.0840 H         1 SUB1        0.058
     59 H322        2.7074    9.9713   26.0519 H         1 SUB1        0.058
     60 H323        3.7349    9.5197   27.4544 H         1 SUB1        0.058
@<TRIPOS>BOND
     1    1    6 ar 
     2    1    2 ar 
     3    2   11 1  
     4    2    3 ar 
     5    3    4 ar 
     6    4    5 ar 
     7    5   33 2  
     8    5    6 ar 
     9   11   12 ar 
    10   11   10 ar 
    11   10    9 ar 
    12    9    8 ar 
    13    8   13 1  
    14    8    7 ar 
    15    7   12 ar 
    16   13   31 2  
    17   13   14 am 
    18   14   15 1  
    19   15   17 1  
    20   15   16 1  
    21   17   20 1  
    22   17   18 1  
    23   18   30 2  
    24   18   19 1  
    25   19   32 1  
    26   20   26 1  
    27   26   25 ar 
    28   26   21 ar 
    29   21   22 ar 
    30   22   27 1  
    31   22   23 ar 
    32   23   24 ar 
    33   24   25 ar 
    34   27   29 1  
    35   27   28 1  
    36    1   34 1  
    37    3   35 1  
    38    4   36 1  
    39    6   37 1  
    40    7   38 1  
    41    9   39 1  
    42   10   40 1  
    43   12   41 1  
    44   14   42 1  
    45   15   43 1  
    46   16   44 1  
    47   16   45 1  
    48   16   46 1  
    49   17   47 1  
    50   20   48 1  
    51   20   49 1  
    52   21   50 1  
    53   23   51 1  
    54   24   52 1  
    55   25   53 1  
    56   28   54 1  
    57   28   55 1  
    58   29   56 1  
    59   29   57 1  
    60   32   58 1  
    61   32   59 1  
    62   32   60 1  
@<TRIPOS>SUBSTRUCTURE
     1 SUB1        1 GROUP

