### 
### Created by X-TOOL on Tue Oct 25 02:30:24 2005
### 

@<TRIPOS>MOLECULE
4ts1_ligand
   24    24     1     0     0
SMALL
GAST_HUCK


@<TRIPOS>ATOM
      1 N          15.4720    2.5710   27.7220 N.4       1 SUB1        0.240
      2 CA         14.3700    2.7470   28.6720 C.3       1 SUB1        0.023
      3 C          13.6960    1.4030   29.0050 C.2       1 SUB1        0.078
      4 O          12.9010    1.4090   29.9760 O.co2     1 SUB1       -0.561
      5 CB         13.2860    3.7660   28.1840 C.3       1 SUB1        0.030
      6 CG         13.8610    5.0950   27.8010 C.ar      1 SUB1       -0.045
      7 CD1        14.5160    5.9320   28.7800 C.ar      1 SUB1       -0.068
      8 CD2        13.7710    5.5630   26.5260 C.ar      1 SUB1       -0.068
      9 CE1        15.0490    7.1460   28.4030 C.ar      1 SUB1       -0.040
     10 CE2        14.2770    6.8150   26.1290 C.ar      1 SUB1       -0.040
     11 CZ         14.9270    7.5770   27.0800 C.ar      1 SUB1        0.080
     12 OH         15.4140    8.7930   26.6570 O.3       1 SUB1       -0.338
     13 OXT        13.9160    0.4080   28.3030 O.co2     1 SUB1       -0.561
     14 H11        15.5171    1.6058   27.4348 H         1 SUB1        0.202
     15 H21        14.8043    3.1461   29.6005 H         1 SUB1        0.109
     16 H51        12.5590    3.9195   28.9951 H         1 SUB1        0.050
     17 H52        12.7739    3.3403   27.3085 H         1 SUB1        0.050
     18 H71        14.5882    5.6051   29.8110 H         1 SUB1        0.053
     19 H81        13.2867    4.9421   25.7811 H         1 SUB1        0.053
     20 H91        15.5613    7.7644   29.1311 H         1 SUB1        0.052
     21 H101       14.1605    7.1692   25.1112 H         1 SUB1        0.052
     22 H121       15.2336    8.9002   25.7305 H         1 SUB1        0.246
     23 H12        16.3404    2.8313   28.1627 H         1 SUB1        0.202
     24 H13        15.3165    3.1547   26.9151 H         1 SUB1        0.202
@<TRIPOS>BOND
     1    2    3 1  
     2    2    5 1  
     3    2    1 1  
     4    5    6 1  
     5    6    8 ar 
     6    6    7 ar 
     7    7    9 ar 
     8    9   11 ar 
     9   11   12 1  
    10   11   10 ar 
    11   10    8 ar 
    12    3   13 2  
    13    3    4 2  
    14    1   14 1  
    15    2   15 1  
    16    5   16 1  
    17    5   17 1  
    18    7   18 1  
    19    8   19 1  
    20    9   20 1  
    21   10   21 1  
    22   12   22 1  
    23    1   23 1  
    24    1   24 1  
@<TRIPOS>SUBSTRUCTURE
     1 SUB1        1 GROUP

