### 
### Created by X-TOOL on Mon Oct 24 23:30:11 2005
### 

@<TRIPOS>MOLECULE
1ydk_ligand
   54    53     1     0     0
SMALL
GAST_HUCK


@<TRIPOS>ATOM
      1 N1         25.8140   24.1410   13.1200 N.4       1 SUB1        0.238
      2 CA1        26.6160   25.2300   12.5920 C.3       1 SUB1        0.017
      3 C1         27.1920   24.8350   11.2590 C.2       1 SUB1        0.076
      4 O11        27.5250   25.7060   10.4230 O.co2     1 SUB1       -0.561
      5 O12        27.3500   23.6320   10.9700 O.co2     1 SUB1       -0.561
      6 CB1        27.7430   25.5880   13.5610 C.3       1 SUB1        0.018
      7 CG1        28.3650   26.9360   13.1990 C.3       1 SUB1        0.045
      8 CD1        29.4220   27.3370   14.2080 C.2       1 SUB1        0.179
      9 OE1        29.4730   26.7140   15.4620 O.2       1 SUB1       -0.397
     10 N2         30.2640   28.3060   13.8560 N.am      1 SUB1       -0.265
     11 CA2        31.2080   28.8780   14.8040 C.3       1 SUB1        0.140
     12 C2         30.8970   30.3270   15.0190 C.2       1 SUB1        0.205
     13 O2         30.6400   31.1440   13.9020 O.2       1 SUB1       -0.394
     14 CB2        32.6350   28.8050   14.2580 C.3       1 SUB1        0.034
     15 SG2        33.1360   27.1560   13.7270 S.3       1 SUB1       -0.156
     16 C1S        33.8320   26.7590   15.3520 C.3       1 SUB1       -0.006
     17 C2S        35.1720   26.0400   15.2400 C.3       1 SUB1       -0.044
     18 C3S        35.0020   24.5240   15.2500 C.3       1 SUB1       -0.052
     19 C4S        36.0700   23.8270   16.0930 C.3       1 SUB1       -0.053
     20 C5S        37.4510   23.8420   15.4450 C.3       1 SUB1       -0.056
     21 C6S        38.5440   23.7660   16.5110 C.3       1 SUB1       -0.065
     22 N3         30.9010   30.7590   16.2810 N.am      1 SUB1       -0.271
     23 CA3        30.4070   32.0700   16.6610 C.3       1 SUB1        0.070
     24 C3         29.1180   32.0270   17.4520 C.2       1 SUB1        0.050
     25 O31        28.6510   33.0890   17.9240 O.co2     1 SUB1       -0.564
     26 O32        28.4980   30.9540   17.6520 O.co2     1 SUB1       -0.564
     27 H11        25.4298   24.4088   14.0126 H         1 SUB1        0.202
     28 H12        26.3918   23.3231   13.2347 H         1 SUB1        0.202
     29 H13        25.0635   23.9351   12.4794 H         1 SUB1        0.202
     30 H21        25.9723   26.1116   12.4563 H         1 SUB1        0.107
     31 H61        28.5187   24.8094   13.5149 H         1 SUB1        0.038
     32 H62        27.3370   25.6412   14.5819 H         1 SUB1        0.038
     33 H71        27.5763   27.7025   13.1810 H         1 SUB1        0.051
     34 H72        28.8278   26.8626   12.2038 H         1 SUB1        0.051
     35 H101       30.2474   28.6493   12.9169 H         1 SUB1        0.188
     36 H111       31.1432   28.3322   15.7568 H         1 SUB1        0.081
     37 H141       33.3246   29.1381   15.0476 H         1 SUB1        0.042
     38 H142       32.7101   29.4834   13.3954 H         1 SUB1        0.042
     39 H161       33.1257   26.1114   15.8921 H         1 SUB1        0.038
     40 H162       33.9764   27.6933   15.9143 H         1 SUB1        0.038
     41 H171       35.8059   26.3331   16.0899 H         1 SUB1        0.027
     42 H172       35.6588   26.3378   14.2996 H         1 SUB1        0.027
     43 H181       35.0694   24.1534   14.2165 H         1 SUB1        0.027
     44 H182       34.0116   24.2816   15.6626 H         1 SUB1        0.027
     45 H191       35.7669   22.7807   16.2460 H         1 SUB1        0.026
     46 H192       36.1348   24.3360   17.0660 H         1 SUB1        0.026
     47 H201       37.5707   24.7718   14.8696 H         1 SUB1        0.026
     48 H202       37.5434   22.9785   14.7698 H         1 SUB1        0.026
     49 H211       39.5310   23.7780   16.0256 H         1 SUB1        0.023
     50 H212       38.4301   22.8360   17.0873 H         1 SUB1        0.023
     51 H213       38.4575   24.6293   17.1871 H         1 SUB1        0.023
     52 H221       31.2586   30.1556   16.9938 H         1 SUB1        0.190
     53 H231       30.2336   32.6548   15.7456 H         1 SUB1        0.074
     54 H232       31.1741   32.5664   17.2735 H         1 SUB1        0.074
@<TRIPOS>BOND
     1    1    2 1  
     2    2    3 1  
     3    2    6 1  
     4    3    4 2  
     5    3    5 2  
     6    6    7 1  
     7    7    8 1  
     8    8    9 2  
     9    8   10 am 
    10   10   11 1  
    11   11   12 1  
    12   11   14 1  
    13   12   13 2  
    14   12   22 am 
    15   14   15 1  
    16   15   16 1  
    17   16   17 1  
    18   17   18 1  
    19   18   19 1  
    20   19   20 1  
    21   20   21 1  
    22   22   23 1  
    23   23   24 1  
    24   24   25 2  
    25   24   26 2  
    26    1   27 1  
    27    1   28 1  
    28    1   29 1  
    29    2   30 1  
    30    6   31 1  
    31    6   32 1  
    32    7   33 1  
    33    7   34 1  
    34   10   35 1  
    35   11   36 1  
    36   14   37 1  
    37   14   38 1  
    38   16   39 1  
    39   16   40 1  
    40   17   41 1  
    41   17   42 1  
    42   18   43 1  
    43   18   44 1  
    44   19   45 1  
    45   19   46 1  
    46   20   47 1  
    47   20   48 1  
    48   21   49 1  
    49   21   50 1  
    50   21   51 1  
    51   22   52 1  
    52   23   53 1  
    53   23   54 1  
@<TRIPOS>SUBSTRUCTURE
     1 SUB1        1 GROUP

