### 
### Created by X-TOOL on Sun Jun  3 11:17:26 2007
### 

@<TRIPOS>MOLECULE
2bq7_ligand
   61    64     1     0     0
SMALL
GAST_HUCK


@<TRIPOS>ATOM
      1 C1          2.9280   10.1710   25.6810 C.ar      1 SUB1       -0.074
      2 C2          4.1290    9.3140   25.6060 C.ar      1 SUB1       -0.040
      3 C3          4.5190    8.6980   24.3160 C.ar      1 SUB1        0.072
      4 C4          3.6890    8.9150   23.0960 C.ar      1 SUB1       -0.017
      5 C5          2.5090    9.7940   23.1820 C.ar      1 SUB1       -0.071
      6 C6          2.1280   10.4270   24.4640 C.ar      1 SUB1       -0.076
      7 N7          5.5630    7.8600   23.9420 N.pl3     1 SUB1       -0.241
      8 C8          5.4000    7.5430   22.6360 C.2       1 SUB1        0.136
      9 C9          4.2690    8.1570   22.0620 C.2       1 SUB1       -0.039
     10 C11         6.2190    6.6620   21.9460 C.2       1 SUB1        0.227
     11 N12         5.6200    5.8960   21.0150 N.am      1 SUB1       -0.282
     12 C13         6.5290    4.8740   20.5510 C.3       1 SUB1        0.044
     13 C14         7.1480    5.2740   19.2120 C.3       1 SUB1       -0.017
     14 C17         6.6300    7.3370   24.8480 C.3       1 SUB1        0.083
     15 C18         7.9910    8.0540   24.9150 C.ar      1 SUB1       -0.023
     16 C21         8.4230    9.1450   23.9950 C.ar      1 SUB1       -0.069
     17 C22         9.7460    9.7500   24.1690 C.ar      1 SUB1       -0.077
     18 C23        10.6360    9.2850   25.2370 C.ar      1 SUB1       -0.040
     19 C24        10.2270    8.2260   26.1600 C.ar      1 SUB1        0.084
     20 C25         8.9040    7.6040   25.9830 C.ar      1 SUB1       -0.030
     21 C26         8.1740    4.2590   18.7010 C.3       1 SUB1        0.001
     22 O1         11.1410    7.9520   27.1750 O.3       1 SUB1       -0.323
     23 O45         7.4220    6.5950   22.2000 O.2       1 SUB1       -0.384
     24 C7         11.1000    6.7610   27.9850 C.3       1 SUB1        0.059
     25 C10         5.8550    3.5200   20.3430 C.3       1 SUB1       -0.017
     26 C12         6.8320    2.4410   19.8490 C.3       1 SUB1        0.001
     27 N1          7.5590    2.9000   18.6120 N.3       1 SUB1       -0.300
     28 C16         8.5080    1.8250   18.2030 C.3       1 SUB1        0.005
     29 C19         9.5270    2.2250   17.1470 C.3       1 SUB1       -0.050
     30 C20         7.7150    0.6220   17.7310 C.3       1 SUB1       -0.050
     31 H           2.6320   10.6139   26.6320 H         1 SUB1        0.055
     32 H           4.7278    9.1349   26.4990 H         1 SUB1        0.055
     33 H           1.9099    9.9799   22.2906 H         1 SUB1        0.056
     34 H           1.2579   11.0818   24.5113 H         1 SUB1        0.052
     35 H           3.9177    8.0644   21.0343 H         1 SUB1        0.040
     36 H           4.6628    6.0195   20.6851 H         1 SUB1        0.184
     37 H           7.2825    4.7807   21.3330 H         1 SUB1        0.056
     38 H           7.6630    6.2240   19.3546 H         1 SUB1        0.030
     39 H           6.3440    5.3319   18.4783 H         1 SUB1        0.030
     40 H           6.8600    6.3452   24.4589 H         1 SUB1        0.076
     41 H           6.2149    7.4398   25.8506 H         1 SUB1        0.076
     42 H           7.7608    9.4892   23.2005 H         1 SUB1        0.047
     43 H          10.0697   10.5489   23.5018 H         1 SUB1        0.057
     44 H          11.6219    9.7371   25.3456 H         1 SUB1        0.049
     45 H           8.5949    6.7997   26.6505 H         1 SUB1        0.048
     46 H           9.0154    4.2243   19.3931 H         1 SUB1        0.043
     47 H           8.5117    4.5624   17.7100 H         1 SUB1        0.043
     48 H          10.1494    6.7172   28.5166 H         1 SUB1        0.058
     49 H          11.2006    5.8843   27.3451 H         1 SUB1        0.058
     50 H          11.9190    6.7837   28.7039 H         1 SUB1        0.058
     51 H           5.0818    3.6439   19.5848 H         1 SUB1        0.030
     52 H           5.4542    3.1945   21.3030 H         1 SUB1        0.030
     53 H           6.2674    1.5399   19.6097 H         1 SUB1        0.043
     54 H           7.5634    2.2449   20.6330 H         1 SUB1        0.043
     55 H           9.1006    1.5944   19.0883 H         1 SUB1        0.046
     56 H           9.0065    2.5398   16.2425 H         1 SUB1        0.024
     57 H          10.1344    3.0481   17.5234 H         1 SUB1        0.024
     58 H          10.1678    1.3727   16.9210 H         1 SUB1        0.024
     59 H           7.0811    0.2651   18.5427 H         1 SUB1        0.024
     60 H           7.0939    0.9081   16.8822 H         1 SUB1        0.024
     61 H           8.4019   -0.1690   17.4300 H         1 SUB1        0.024
@<TRIPOS>BOND
     1    1    2 ar 
     2    1    6 ar 
     3    2    3 ar 
     4    3    4 ar 
     5    3    7 1  
     6    4    5 ar 
     7    4    9 1  
     8    5    6 ar 
     9    7    8 1  
    10    7   14 1  
    11    8    9 2  
    12    8   10 1  
    13   10   11 am 
    14   10   23 2  
    15   11   12 1  
    16   12   13 1  
    17   12   25 1  
    18   13   21 1  
    19   14   15 1  
    20   15   16 ar 
    21   15   20 ar 
    22   16   17 ar 
    23   17   18 ar 
    24   18   19 ar 
    25   19   20 ar 
    26   19   22 1  
    27   21   27 1  
    28   22   24 1  
    29   25   26 1  
    30   26   27 1  
    31   27   28 1  
    32   28   29 1  
    33   28   30 1  
    34    1   31 1  
    35    2   32 1  
    36    5   33 1  
    37    6   34 1  
    38    9   35 1  
    39   11   36 1  
    40   12   37 1  
    41   13   38 1  
    42   13   39 1  
    43   14   40 1  
    44   14   41 1  
    45   16   42 1  
    46   17   43 1  
    47   18   44 1  
    48   20   45 1  
    49   21   46 1  
    50   21   47 1  
    51   24   48 1  
    52   24   49 1  
    53   24   50 1  
    54   25   51 1  
    55   25   52 1  
    56   26   53 1  
    57   26   54 1  
    58   28   55 1  
    59   29   56 1  
    60   29   57 1  
    61   29   58 1  
    62   30   59 1  
    63   30   60 1  
    64   30   61 1  
@<TRIPOS>SUBSTRUCTURE
     1 SUB1        1 GROUP

