2bq7_ligand
  -I-interpret- 

 61 64  0  0  0  0  0  0  0  0999 V2000
    2.9280   10.1710   25.6810 C   0  0  0  0  0
    4.1290    9.3140   25.6060 C   0  0  0  0  0
    4.5190    8.6980   24.3160 C   0  0  0  0  0
    3.6890    8.9150   23.0960 C   0  0  0  0  0
    2.5090    9.7940   23.1820 C   0  0  0  0  0
    2.1280   10.4270   24.4640 C   0  0  0  0  0
    5.5630    7.8600   23.9420 N   0  0  0  0  0
    5.4000    7.5430   22.6360 C   0  0  0  0  0
    4.2690    8.1570   22.0620 C   0  0  0  0  0
    6.2190    6.6620   21.9460 C   0  0  0  0  0
    5.6200    5.8960   21.0150 N   0  0  0  0  0
    6.5290    4.8740   20.5510 C   0  0  0  0  0
    7.1480    5.2740   19.2120 C   0  0  0  0  0
    6.6300    7.3370   24.8480 C   0  0  0  0  0
    7.9910    8.0540   24.9150 C   0  0  0  0  0
    8.4230    9.1450   23.9950 C   0  0  0  0  0
    9.7460    9.7500   24.1690 C   0  0  0  0  0
   10.6360    9.2850   25.2370 C   0  0  0  0  0
   10.2270    8.2260   26.1600 C   0  0  0  0  0
    8.9040    7.6040   25.9830 C   0  0  0  0  0
    8.1740    4.2590   18.7010 C   0  0  0  0  0
   11.1410    7.9520   27.1750 O   0  0  0  0  0
    7.4220    6.5950   22.2000 O   0  0  0  0  0
   11.1000    6.7610   27.9850 C   0  0  0  0  0
    5.8550    3.5200   20.3430 C   0  0  0  0  0
    6.8320    2.4410   19.8490 C   0  0  0  0  0
    7.5590    2.9000   18.6120 N   0  0  0  0  0
    8.5080    1.8250   18.2030 C   0  0  0  0  0
    9.5270    2.2250   17.1470 C   0  0  0  0  0
    7.7150    0.6220   17.7310 C   0  0  0  0  0
    2.6320   10.6139   26.6320 H   0  0  0  0  0
    4.7278    9.1349   26.4990 H   0  0  0  0  0
    1.9099    9.9799   22.2906 H   0  0  0  0  0
    1.2579   11.0818   24.5113 H   0  0  0  0  0
    3.9177    8.0644   21.0343 H   0  0  0  0  0
    4.6628    6.0195   20.6851 H   0  0  0  0  0
    7.2825    4.7807   21.3330 H   0  0  0  0  0
    7.6630    6.2240   19.3546 H   0  0  0  0  0
    6.3440    5.3319   18.4783 H   0  0  0  0  0
    6.8600    6.3452   24.4589 H   0  0  0  0  0
    6.2149    7.4398   25.8506 H   0  0  0  0  0
    7.7608    9.4892   23.2005 H   0  0  0  0  0
   10.0697   10.5489   23.5018 H   0  0  0  0  0
   11.6219    9.7371   25.3456 H   0  0  0  0  0
    8.5949    6.7997   26.6505 H   0  0  0  0  0
    9.0154    4.2243   19.3931 H   0  0  0  0  0
    8.5117    4.5624   17.7100 H   0  0  0  0  0
   10.1494    6.7172   28.5166 H   0  0  0  0  0
   11.2006    5.8843   27.3451 H   0  0  0  0  0
   11.9190    6.7837   28.7039 H   0  0  0  0  0
    5.0818    3.6439   19.5848 H   0  0  0  0  0
    5.4542    3.1945   21.3030 H   0  0  0  0  0
    6.2674    1.5399   19.6097 H   0  0  0  0  0
    7.5634    2.2449   20.6330 H   0  0  0  0  0
    9.1006    1.5944   19.0883 H   0  0  0  0  0
    9.0065    2.5398   16.2425 H   0  0  0  0  0
   10.1344    3.0481   17.5234 H   0  0  0  0  0
   10.1678    1.3727   16.9210 H   0  0  0  0  0
    7.0811    0.2651   18.5427 H   0  0  0  0  0
    7.0939    0.9081   16.8822 H   0  0  0  0  0
    8.4019   -0.1690   17.4300 H   0  0  0  0  0
  1  2  4  0  0  0
  1  6  4  0  0  0
  2  3  4  0  0  0
  3  4  4  0  0  0
  3  7  1  0  0  0
  4  5  4  0  0  0
  4  9  1  0  0  0
  5  6  4  0  0  0
  7  8  1  0  0  0
  7 14  1  0  0  0
  8  9  2  0  0  0
  8 10  1  0  0  0
 10 11  1  0  0  0
 10 23  2  0  0  0
 11 12  1  0  0  0
 12 13  1  0  0  0
 12 25  1  0  0  0
 13 21  1  0  0  0
 14 15  1  0  0  0
 15 16  4  0  0  0
 15 20  4  0  0  0
 16 17  4  0  0  0
 17 18  4  0  0  0
 18 19  4  0  0  0
 19 20  4  0  0  0
 19 22  1  0  0  0
 21 27  1  0  0  0
 22 24  1  0  0  0
 25 26  1  0  0  0
 26 27  1  0  0  0
 27 28  1  0  0  0
 28 29  1  0  0  0
 28 30  1  0  0  0
  1 31  1  0  0  0
  2 32  1  0  0  0
  5 33  1  0  0  0
  6 34  1  0  0  0
  9 35  1  0  0  0
 11 36  1  0  0  0
 12 37  1  0  0  0
 13 38  1  0  0  0
 13 39  1  0  0  0
 14 40  1  0  0  0
 14 41  1  0  0  0
 16 42  1  0  0  0
 17 43  1  0  0  0
 18 44  1  0  0  0
 20 45  1  0  0  0
 21 46  1  0  0  0
 21 47  1  0  0  0
 24 48  1  0  0  0
 24 49  1  0  0  0
 24 50  1  0  0  0
 25 51  1  0  0  0
 25 52  1  0  0  0
 26 53  1  0  0  0
 26 54  1  0  0  0
 28 55  1  0  0  0
 29 56  1  0  0  0
 29 57  1  0  0  0
 29 58  1  0  0  0
 30 59  1  0  0  0
 30 60  1  0  0  0
 30 61  1  0  0  0
M  END
$$$$
