### 
### Created by X-TOOL on Tue Oct 25 02:30:14 2005
### 

@<TRIPOS>MOLECULE
1t7d_ligand
   88    90     1     0     0
SMALL
GAST_HUCK


@<TRIPOS>ATOM
      1 C48        -2.4720   59.2060    3.8130 C.3       1 SUB1        0.026
      2 C46        -2.1830   58.1320    4.8670 C.2       1 SUB1        0.177
      3 O47        -1.5180   58.4170    5.8640 O.2       1 SUB1       -0.397
      4 N1         -2.6670   56.9110    4.6460 N.am      1 SUB1       -0.253
      5 C49        -3.4100   56.6990    3.3920 C.3       1 SUB1        0.025
      6 C2         -2.4040   55.8560    5.6390 C.3       1 SUB1        0.156
      7 C3         -1.0990   55.1350    5.2910 C.3       1 SUB1        0.084
      8 O4         -1.1850   54.5820    3.9750 O.3       1 SUB1       -0.390
      9 C5         -3.5330   54.8260    5.7380 C.2       1 SUB1        0.206
     10 O6         -4.1460   54.4540    4.7380 O.2       1 SUB1       -0.394
     11 N7         -3.7850   54.3970    6.9730 N.am      1 SUB1       -0.264
     12 C8         -4.7950   53.3700    7.2710 C.3       1 SUB1        0.128
     13 C9         -5.3270   53.5340    8.6970 C.3       1 SUB1       -0.024
     14 C10        -4.0880   52.0220    7.1290 C.2       1 SUB1        0.203
     15 O11        -2.9230   51.8900    7.5030 O.2       1 SUB1       -0.394
     16 N12        -4.8020   51.0410    6.5880 N.am      1 SUB1       -0.266
     17 C13        -4.2350   49.7040    6.3540 C.3       1 SUB1        0.120
     18 C14        -3.8270   49.0030    7.6530 C.2       1 SUB1        0.205
     19 O15        -4.0050   49.5490    8.7400 O.2       1 SUB1       -0.394
     20 N16        -3.2370   47.8160    7.5230 N.am      1 SUB1       -0.244
     21 C17        -2.9920   47.3320    6.1550 C.3       1 SUB1        0.027
     22 C18        -2.8490   47.0620    8.7250 C.3       1 SUB1        0.162
     23 C26        -1.3300   47.0140    8.9110 C.2       1 SUB1        0.214
     24 O27        -0.5570   47.4040    8.0380 O.2       1 SUB1       -0.392
     25 N28        -0.9630   46.4710   10.0690 N.am      1 SUB1       -0.263
     26 C29         0.4270   46.2540   10.4960 C.3       1 SUB1        0.128
     27 C30         0.9020   47.4170   11.3710 C.3       1 SUB1       -0.024
     28 C31         0.4280   44.9540   11.3030 C.2       1 SUB1        0.205
     29 O32        -0.1200   44.9020   12.4030 O.2       1 SUB1       -0.394
     30 N33         1.0180   43.9160   10.7180 N.am      1 SUB1       -0.266
     31 C34         1.0960   42.5810   11.3330 C.3       1 SUB1        0.089
     32 C43         2.2350   42.5030   12.3520 C.2       1 SUB1        0.055
     33 O45         2.2760   41.5770   13.1610 O.co2     1 SUB1       -0.564
     34 O44         3.1170   43.3600   12.3710 O.co2     1 SUB1       -0.564
     35 C35         1.3000   41.5090   10.2570 C.3       1 SUB1        0.010
     36 C36         0.1330   41.3990    9.2710 C.ar      1 SUB1       -0.049
     37 C38        -0.9130   42.3150    9.3010 C.ar      1 SUB1       -0.063
     38 C37         0.1200   40.3840    8.3160 C.ar      1 SUB1       -0.069
     39 C39        -0.9310   40.2990    7.4080 C.ar      1 SUB1       -0.040
     40 C41        -1.9730   41.2220    7.4430 C.ar      1 SUB1        0.088
     41 O42        -2.9820   41.1290    6.5380 O.3       1 SUB1       -0.336
     42 C40        -1.9670   42.2420    8.3950 C.ar      1 SUB1        0.001
     43 C22        -2.9220   43.2530    8.4130 C.ar      1 SUB1        0.001
     44 C20        -2.4830   44.5690    8.5230 C.ar      1 SUB1       -0.058
     45 C19        -3.3800   45.6290    8.6170 C.ar      1 SUB1       -0.010
     46 C21        -4.7470   45.3710    8.5950 C.ar      1 SUB1       -0.065
     47 C23        -5.1960   44.0580    8.4730 C.ar      1 SUB1       -0.039
     48 C24        -4.2940   43.0020    8.3800 C.ar      1 SUB1        0.089
     49 O25        -4.7620   41.7300    8.2610 O.3       1 SUB1       -0.336
     50 H11        -3.0742   58.7709    3.0018 H         1 SUB1        0.047
     51 H12        -1.5231   59.5828    3.4036 H         1 SUB1        0.047
     52 H13        -3.0262   60.0353    4.2769 H         1 SUB1        0.047
     53 H51        -3.4641   57.6451    2.8335 H         1 SUB1        0.049
     54 H52        -4.4276   56.3510    3.6230 H         1 SUB1        0.049
     55 H53        -2.8932   55.9427    2.7829 H         1 SUB1        0.049
     56 H61        -2.2924   56.3359    6.6225 H         1 SUB1        0.083
     57 H71        -0.9245   54.3262    6.0158 H         1 SUB1        0.061
     58 H72        -0.2646   55.8506    5.3321 H         1 SUB1        0.061
     59 H81        -1.9049   53.9631    3.9392 H         1 SUB1        0.210
     60 H111       -3.2648   54.7902    7.7312 H         1 SUB1        0.188
     61 H121       -5.6299   53.4405    6.5583 H         1 SUB1        0.080
     62 H131       -6.0796   52.7576    8.8991 H         1 SUB1        0.028
     63 H132       -5.7869   54.5274    8.8048 H         1 SUB1        0.028
     64 H133       -4.4968   53.4347    9.4118 H         1 SUB1        0.028
     65 H161       -5.7527   51.2166    6.3324 H         1 SUB1        0.188
     66 H171       -3.3462   49.8051    5.7139 H         1 SUB1        0.076
     67 H172       -4.9876   49.0866    5.8417 H         1 SUB1        0.076
     68 H211       -3.3706   48.0694    5.4319 H         1 SUB1        0.049
     69 H212       -3.5108   46.3734    6.0068 H         1 SUB1        0.049
     70 H213       -1.9116   47.1915    6.0037 H         1 SUB1        0.049
     71 H221       -3.2963   47.5491    9.6040 H         1 SUB1        0.094
     72 H251       -1.6883   46.1889   10.6970 H         1 SUB1        0.188
     73 H261        1.0853   46.1605    9.6197 H         1 SUB1        0.080
     74 H271        1.9422   47.2406   11.6823 H         1 SUB1        0.028
     75 H272        0.2605   47.4918   12.2614 H         1 SUB1        0.028
     76 H273        0.8447   48.3542   10.7980 H         1 SUB1        0.028
     77 H301        1.4289   44.0488    9.8160 H         1 SUB1        0.190
     78 H311        0.1472   42.3833   11.8532 H         1 SUB1        0.080
     79 H351        1.4272   40.5364   10.7549 H         1 SUB1        0.046
     80 H352        2.2112   41.7533    9.6913 H         1 SUB1        0.046
     81 H371       -0.9073   43.1026   10.0458 H         1 SUB1        0.052
     82 H381        0.9276   39.6617    8.2806 H         1 SUB1        0.052
     83 H391       -0.9386   39.5076    6.6672 H         1 SUB1        0.052
     84 H411       -3.6097   41.8252    6.6925 H         1 SUB1        0.247
     85 H441       -1.4185   44.7731    8.5358 H         1 SUB1        0.052
     86 H461       -5.4576   46.1859    8.6722 H         1 SUB1        0.053
     87 H471       -6.2608   43.8562    8.4502 H         1 SUB1        0.052
     88 H491       -4.0292   41.1277    8.2089 H         1 SUB1        0.247
@<TRIPOS>BOND
     1    1    2 1  
     2    2    3 2  
     3    2    4 am 
     4    4    5 1  
     5    4    6 1  
     6    6    7 1  
     7    6    9 1  
     8    7    8 1  
     9    9   10 2  
    10    9   11 am 
    11   11   12 1  
    12   12   13 1  
    13   12   14 1  
    14   14   15 2  
    15   14   16 am 
    16   16   17 1  
    17   17   18 1  
    18   18   19 2  
    19   18   20 am 
    20   20   21 1  
    21   20   22 1  
    22   22   23 1  
    23   22   45 1  
    24   23   24 2  
    25   23   25 am 
    26   25   26 1  
    27   26   27 1  
    28   26   28 1  
    29   28   29 2  
    30   28   30 am 
    31   30   31 1  
    32   31   32 1  
    33   31   35 1  
    34   32   33 2  
    35   32   34 2  
    36   35   36 1  
    37   36   37 ar 
    38   36   38 ar 
    39   37   42 ar 
    40   38   39 ar 
    41   39   40 ar 
    42   40   41 1  
    43   40   42 ar 
    44   42   43 1  
    45   43   44 ar 
    46   43   48 ar 
    47   44   45 ar 
    48   45   46 ar 
    49   46   47 ar 
    50   47   48 ar 
    51   48   49 1  
    52    1   50 1  
    53    1   51 1  
    54    1   52 1  
    55    5   53 1  
    56    5   54 1  
    57    5   55 1  
    58    6   56 1  
    59    7   57 1  
    60    7   58 1  
    61    8   59 1  
    62   11   60 1  
    63   12   61 1  
    64   13   62 1  
    65   13   63 1  
    66   13   64 1  
    67   16   65 1  
    68   17   66 1  
    69   17   67 1  
    70   21   68 1  
    71   21   69 1  
    72   21   70 1  
    73   22   71 1  
    74   25   72 1  
    75   26   73 1  
    76   27   74 1  
    77   27   75 1  
    78   27   76 1  
    79   30   77 1  
    80   31   78 1  
    81   35   79 1  
    82   35   80 1  
    83   37   81 1  
    84   38   82 1  
    85   39   83 1  
    86   41   84 1  
    87   44   85 1  
    88   46   86 1  
    89   47   87 1  
    90   49   88 1  
@<TRIPOS>SUBSTRUCTURE
     1 SUB1        1 GROUP

