### 
### Created by X-TOOL on Mon Oct 24 22:34:47 2005
### 

@<TRIPOS>MOLECULE
1v2r_ligand
   55    56     1     0     0
SMALL
GAST_HUCK


@<TRIPOS>ATOM
      1 N12        -2.2590   17.7940   16.8290 N.am      1 SUB1       -0.261
      2 C13        -3.5220   17.1800   17.3670 C.3       1 SUB1        0.152
      3 C30        -3.1670   16.2540   18.5350 C.3       1 SUB1        0.023
      4 C14        -4.6950   18.1800   17.8190 C.2       1 SUB1        0.261
      5 O17        -5.8440   17.9850   17.3540 O.2       1 SUB1       -0.368
      6 O15        -4.4060   19.2580   18.7270 O.3       1 SUB1       -0.278
      7 C16        -3.0960   19.5770   19.3330 C.3       1 SUB1        0.066
      8 C21        -2.3960   14.9840   18.1870 C.ar      1 SUB1       -0.034
      9 C22        -1.3750   14.5490   19.0660 C.ar      1 SUB1       -0.060
     10 C23        -0.6240   13.3730   18.7900 C.ar      1 SUB1       -0.064
     11 C24        -0.9000   12.6210   17.6180 C.ar      1 SUB1       -0.014
     12 C25        -1.9400   13.0130   16.6660 C.ar      1 SUB1        0.179
     13 C26        -2.6840   14.2220   16.9880 C.ar      1 SUB1       -0.005
     14 C27        -2.1940   12.2450   15.5100 C.cat     1 SUB1        0.315
     15 N28        -2.8020   12.6830   14.4240 N.pl3     1 SUB1       -0.200
     16 N29        -1.8550   10.9670   15.3660 N.pl3     1 SUB1       -0.200
     17 C11        -2.2090   18.6440   15.7890 C.2       1 SUB1        0.197
     18 C10        -0.8900   19.3420   15.4820 C.3       1 SUB1        0.116
     19 N9         -0.8170   19.7340   14.0540 N.am      1 SUB1       -0.229
     20 O20        -3.1750   18.8670   15.0580 O.2       1 SUB1       -0.395
     21 C1          3.5270   24.1330   16.8910 C.3       1 SUB1       -0.031
     22 C2          2.5500   23.4060   16.0500 C.ar      1 SUB1       -0.046
     23 C3          2.9560   22.4740   15.0330 C.ar      1 SUB1       -0.059
     24 C4          1.9540   21.8030   14.2500 C.ar      1 SUB1       -0.042
     25 C5          0.5710   22.1060   14.5200 C.ar      1 SUB1        0.101
     26 C6          0.1870   23.0270   15.5260 C.ar      1 SUB1       -0.042
     27 C7          1.1760   23.6660   16.2780 C.ar      1 SUB1       -0.059
     28 S8         -0.7070   21.3550   13.6280 S.o2      1 SUB1        0.067
     29 O18        -0.4570   21.3940   12.0590 O.2       1 SUB1       -0.151
     30 O19        -2.0790   21.9120   14.1430 O.2       1 SUB1       -0.151
     31 H11        -1.3972   17.5534   17.2756 H         1 SUB1        0.189
     32 H21        -3.9369   16.5624   16.5569 H         1 SUB1        0.084
     33 H31        -4.1071   15.9519   19.0197 H         1 SUB1        0.047
     34 H32        -2.5570   16.8311   19.2456 H         1 SUB1        0.047
     35 H71        -3.1976   20.4588   19.9827 H         1 SUB1        0.058
     36 H72        -2.3662   19.7895   18.5379 H         1 SUB1        0.058
     37 H73        -2.7495   18.7202   19.9294 H         1 SUB1        0.058
     38 H91        -1.1625   15.1204   19.9623 H         1 SUB1        0.056
     39 H101        0.1556   13.0524   19.4715 H         1 SUB1        0.060
     40 H111       -0.3207   11.7260   17.4216 H         1 SUB1        0.061
     41 H131       -3.4677   14.5586   16.3190 H         1 SUB1        0.060
     42 H151       -2.9458   12.0507   13.6238 H         1 SUB1        0.192
     43 H152       -3.1329   13.6573   14.3765 H         1 SUB1        0.192
     44 H161       -1.3696   10.4738   16.1289 H         1 SUB1        0.192
     45 H162       -2.0779   10.4705   14.4915 H         1 SUB1        0.192
     46 H181       -0.0593   18.6581   15.7103 H         1 SUB1        0.072
     47 H182       -0.8056   20.2431   16.1072 H         1 SUB1        0.072
     48 H191       -0.8333   19.0314   13.3426 H         1 SUB1        0.170
     49 H211        4.5475   23.8360   16.6074 H         1 SUB1        0.039
     50 H212        3.3544   23.8873   17.9492 H         1 SUB1        0.039
     51 H213        3.4054   25.2160   16.7414 H         1 SUB1        0.039
     52 H231        4.0079   22.2791   14.8582 H         1 SUB1        0.056
     53 H241        2.2302   21.0913   13.4804 H         1 SUB1        0.062
     54 H261       -0.8612   23.2333   15.7099 H         1 SUB1        0.062
     55 H271        0.8875   24.3721   17.0483 H         1 SUB1        0.056
@<TRIPOS>BOND
     1    1    2 1  
     2   17    1 am 
     3    2    3 1  
     4    2    4 1  
     5    3    8 1  
     6    4    5 2  
     7    4    6 1  
     8    6    7 1  
     9    8    9 ar 
    10    8   13 ar 
    11    9   10 ar 
    12   10   11 ar 
    13   12   11 ar 
    14   13   12 ar 
    15   12   14 1  
    16   14   15 1  
    17   14   16 1  
    18   18   17 1  
    19   17   20 2  
    20   19   18 1  
    21   28   19 am 
    22   22   21 1  
    23   23   22 ar 
    24   22   27 ar 
    25   24   23 ar 
    26   25   24 ar 
    27   25   26 ar 
    28   25   28 1  
    29   26   27 ar 
    30   28   29 2  
    31   28   30 2  
    32    1   31 1  
    33    2   32 1  
    34    3   33 1  
    35    3   34 1  
    36    7   35 1  
    37    7   36 1  
    38    7   37 1  
    39    9   38 1  
    40   10   39 1  
    41   11   40 1  
    42   13   41 1  
    43   15   42 1  
    44   15   43 1  
    45   16   44 1  
    46   16   45 1  
    47   18   46 1  
    48   18   47 1  
    49   19   48 1  
    50   21   49 1  
    51   21   50 1  
    52   21   51 1  
    53   23   52 1  
    54   24   53 1  
    55   26   54 1  
    56   27   55 1  
@<TRIPOS>SUBSTRUCTURE
     1 SUB1        1 GROUP

