### 
### Created by X-TOOL on Sun Jun  3 11:16:52 2007
### 

@<TRIPOS>MOLECULE
2b4l_ligand
   19    18     1     0     0
SMALL
GAST_HUCK


@<TRIPOS>ATOM
      1 N          10.2210   10.6700   16.6320 N.4       1 SUB1        0.252
      2 CA         10.2590   10.0020   17.9510 C.3       1 SUB1        0.083
      3 C          10.7700    8.5840   17.9790 C.2       1 SUB1        0.390
      4 O1         10.9560    8.0820   19.1070 O.2       1 SUB1       -0.256
      5 O2         10.9730    7.9470   16.9210 O.2       1 SUB1       -0.256
      6 C1         11.5510   10.6550   15.9670 C.3       1 SUB1       -0.040
      7 C2          9.1800   10.0520   15.7810 C.3       1 SUB1       -0.040
      8 C3          9.8730   12.0910   16.8830 C.3       1 SUB1       -0.040
      9 H           9.2251    9.9548   18.2929 H         1 SUB1        0.104
     10 H          10.9514   10.5822   18.5609 H         1 SUB1        0.104
     11 H          11.8410    9.6248   15.7607 H         1 SUB1        0.078
     12 H          11.4945   11.2121   15.0318 H         1 SUB1        0.078
     13 H          12.2889   11.1172   16.6227 H         1 SUB1        0.078
     14 H           8.2172   10.1074   16.2890 H         1 SUB1        0.078
     15 H           9.1232   10.5865   14.8327 H         1 SUB1        0.078
     16 H           9.4355    9.0085   15.5967 H         1 SUB1        0.078
     17 H           9.8153   12.6228   15.9333 H         1 SUB1        0.078
     18 H           8.9093   12.1437   17.3895 H         1 SUB1        0.078
     19 H          10.6398   12.5463   17.5098 H         1 SUB1        0.078
@<TRIPOS>BOND
     1    1    2 1  
     2    1    6 1  
     3    1    7 1  
     4    1    8 1  
     5    2    3 1  
     6    3    4 2  
     7    3    5 2  
     8    2    9 1  
     9    2   10 1  
    10    6   11 1  
    11    6   12 1  
    12    6   13 1  
    13    7   14 1  
    14    7   15 1  
    15    7   16 1  
    16    8   17 1  
    17    8   18 1  
    18    8   19 1  
@<TRIPOS>SUBSTRUCTURE
     1 SUB1        1 GROUP

