2b4l_ligand
  -I-interpret- 

 19 18  0  0  0  0  0  0  0  0999 V2000
   10.2210   10.6700   16.6320 N   0  3  0  0  0
   10.2590   10.0020   17.9510 C   0  0  0  0  0
   10.7700    8.5840   17.9790 C   0  0  0  0  0
   10.9560    8.0820   19.1070 O   0  0  0  0  0
   10.9730    7.9470   16.9210 O   0  5  0  0  0
   11.5510   10.6550   15.9670 C   0  0  0  0  0
    9.1800   10.0520   15.7810 C   0  0  0  0  0
    9.8730   12.0910   16.8830 C   0  0  0  0  0
    9.2251    9.9548   18.2929 H   0  0  0  0  0
   10.9514   10.5822   18.5609 H   0  0  0  0  0
   11.8410    9.6248   15.7607 H   0  0  0  0  0
   11.4945   11.2121   15.0318 H   0  0  0  0  0
   12.2889   11.1172   16.6227 H   0  0  0  0  0
    8.2172   10.1074   16.2890 H   0  0  0  0  0
    9.1232   10.5865   14.8327 H   0  0  0  0  0
    9.4355    9.0085   15.5967 H   0  0  0  0  0
    9.8153   12.6228   15.9333 H   0  0  0  0  0
    8.9093   12.1437   17.3895 H   0  0  0  0  0
   10.6398   12.5463   17.5098 H   0  0  0  0  0
  1  2  1  0  0  0
  1  6  1  0  0  0
  1  7  1  0  0  0
  1  8  1  0  0  0
  2  3  1  0  0  0
  3  4  2  0  0  0
  3  5  1  0  0  0
  2  9  1  0  0  0
  2 10  1  0  0  0
  6 11  1  0  0  0
  6 12  1  0  0  0
  6 13  1  0  0  0
  7 14  1  0  0  0
  7 15  1  0  0  0
  7 16  1  0  0  0
  8 17  1  0  0  0
  8 18  1  0  0  0
  8 19  1  0  0  0
M  END
$$$$
