### 
### Created by X-TOOL on Tue Oct 25 00:28:36 2005
### 

@<TRIPOS>MOLECULE
1a69_ligand
   31    33     1     0     0
SMALL
GAST_HUCK


@<TRIPOS>ATOM
      1 N1        -18.6290   72.4960   64.7810 N.am      1 SUB1       -0.204
      2 C2        -17.6590   72.8430   65.6920 C.2       1 SUB1        0.116
      3 N3        -17.4340   72.1880   66.8280 N.2       1 SUB1       -0.313
      4 C4        -18.2650   71.1350   66.9710 C.2       1 SUB1        0.051
      5 C5        -19.2640   70.7080   66.1180 C.2       1 SUB1        0.166
      6 C6        -19.4960   71.4120   64.9200 C.2       1 SUB1        0.256
      7 O6        -20.3350   71.1770   64.0460 O.2       1 SUB1       -0.393
      8 N7        -19.9000   69.5840   66.6230 N.pl3     1 SUB1       -0.218
      9 N8        -19.2890   69.3560   67.7600 N.2       1 SUB1       -0.217
     10 C9        -18.2820   70.2630   68.0340 C.2       1 SUB1        0.065
     11 C1'       -17.5510   69.7970   69.2390 C.3       1 SUB1        0.127
     12 C2'       -16.4120   70.7300   69.6340 C.3       1 SUB1        0.119
     13 O2'       -15.2040   69.9950   69.6560 O.3       1 SUB1       -0.385
     14 C3'       -16.8460   71.3300   70.9950 C.3       1 SUB1        0.113
     15 O3'       -16.1160   70.8000   72.1220 O.3       1 SUB1       -0.386
     16 C4'       -18.3190   70.9540   71.1130 C.3       1 SUB1        0.113
     17 O4'       -18.4590   69.7460   70.3290 O.3       1 SUB1       -0.354
     18 C5'       -19.2870   72.0220   70.6090 C.3       1 SUB1        0.073
     19 O5'       -20.6560   71.5800   70.5560 O.3       1 SUB1       -0.392
     20 H11       -18.7192   73.0608   63.9607 H         1 SUB1        0.252
     21 H21       -17.0360   73.7081   65.4696 H         1 SUB1        0.142
     22 H81       -20.6742   69.0511   66.2017 H         1 SUB1        0.249
     23 H111      -17.1516   68.7890   69.0536 H         1 SUB1        0.077
     24 H121      -16.3118   71.5517   68.9096 H         1 SUB1        0.067
     25 H131      -15.2755   69.2893   70.2880 H         1 SUB1        0.210
     26 H141      -16.7385   72.4246   70.9789 H         1 SUB1        0.065
     27 H151      -15.1904   70.9842   72.0133 H         1 SUB1        0.210
     28 H161      -18.5655   70.7585   72.1670 H         1 SUB1        0.065
     29 H181      -19.2390   72.8902   71.2827 H         1 SUB1        0.058
     30 H182      -18.9892   72.3191   69.5926 H         1 SUB1        0.058
     31 H191      -20.7246   70.8350   69.9705 H         1 SUB1        0.209
@<TRIPOS>BOND
     1    1    2 am 
     2    1    6 am 
     3    2    3 2  
     4    3    4 1  
     5    4    5 2  
     6    4   10 1  
     7    5    6 1  
     8    5    8 1  
     9    6    7 2  
    10    8    9 1  
    11    9   10 2  
    12   10   11 1  
    13   11   12 1  
    14   11   17 1  
    15   12   13 1  
    16   12   14 1  
    17   14   15 1  
    18   14   16 1  
    19   16   17 1  
    20   16   18 1  
    21   18   19 1  
    22    1   20 1  
    23    2   21 1  
    24    8   22 1  
    25   11   23 1  
    26   12   24 1  
    27   13   25 1  
    28   14   26 1  
    29   15   27 1  
    30   16   28 1  
    31   18   29 1  
    32   18   30 1  
    33   19   31 1  
@<TRIPOS>SUBSTRUCTURE
     1 SUB1        1 GROUP

