### 
### Created by X-TOOL on Mon Oct 24 22:39:48 2005
### 

@<TRIPOS>MOLECULE
1qbr_ligand
   92    98     1     0     0
SMALL
GAST_HUCK


@<TRIPOS>ATOM
      1 C1         -8.9560   15.3120   27.8810 C.2       1 SUB1        0.267
      2 C2         -9.6230   14.8260   30.1330 C.3       1 SUB1        0.069
      3 C3        -10.9230   16.5360   28.7990 C.3       1 SUB1        0.085
      4 C4        -10.6460   18.0070   28.5720 C.3       1 SUB1        0.108
      5 C5        -10.1090   18.3210   27.2080 C.3       1 SUB1        0.108
      6 C6         -8.7520   17.6730   27.0350 C.3       1 SUB1        0.085
      7 C7         -7.9880   15.6710   25.7060 C.3       1 SUB1        0.069
      8 C20        -9.4680   15.5820   31.4380 C.ar      1 SUB1       -0.015
      9 C21       -10.1490   15.0870   32.5620 C.ar      1 SUB1       -0.038
     10 C22       -10.0330   15.7350   33.8150 C.ar      1 SUB1        0.052
     11 C23        -9.2250   16.8920   33.9420 C.ar      1 SUB1       -0.048
     12 C24        -8.5300   17.3960   32.8200 C.ar      1 SUB1       -0.063
     13 C25        -8.6570   16.7390   31.5700 C.ar      1 SUB1       -0.054
     14 C26       -10.7590   15.1670   35.0100 C.2       1 SUB1        0.242
     15 C27       -11.6710   13.0580   35.9090 C.2       1 SUB1        0.206
     16 C28       -12.3190   11.2370   37.0760 C.2       1 SUB1       -0.047
     17 C29       -12.8090   12.2010   37.9730 C.2       1 SUB1       -0.008
     18 C31       -12.0010   15.9090   27.8960 C.3       1 SUB1        0.007
     19 C32       -12.5630   14.6470   28.4930 C.ar      1 SUB1       -0.041
     20 C33       -12.1580   13.3910   27.9990 C.ar      1 SUB1       -0.060
     21 C34       -12.6060   12.2220   28.6510 C.ar      1 SUB1       -0.069
     22 C35       -13.4550   12.3040   29.7740 C.ar      1 SUB1       -0.069
     23 C36       -13.8720   13.5680   30.2560 C.ar      1 SUB1       -0.069
     24 C37       -13.4240   14.7360   29.6120 C.ar      1 SUB1       -0.060
     25 C61        -7.6640   18.1960   27.9900 C.3       1 SUB1        0.007
     26 C62        -6.3260   18.0760   27.3190 C.ar      1 SUB1       -0.041
     27 C63        -6.0210   18.9560   26.2550 C.ar      1 SUB1       -0.060
     28 C64        -4.7990   18.8260   25.5740 C.ar      1 SUB1       -0.069
     29 C65        -3.8910   17.8180   25.9710 C.ar      1 SUB1       -0.069
     30 C66        -4.2000   16.9470   27.0360 C.ar      1 SUB1       -0.069
     31 C67        -5.4260   17.0650   27.7200 C.ar      1 SUB1       -0.060
     32 C70        -8.6870   15.9400   24.4030 C.ar      1 SUB1       -0.015
     33 C71        -7.9080   16.2330   23.2690 C.ar      1 SUB1       -0.038
     34 C72        -8.5350   16.5210   22.0330 C.ar      1 SUB1        0.052
     35 C73        -9.9420   16.4990   21.9300 C.ar      1 SUB1       -0.048
     36 C74       -10.7180   16.1950   23.0650 C.ar      1 SUB1       -0.063
     37 C75       -10.0960   15.9180   24.3060 C.ar      1 SUB1       -0.054
     38 C76        -7.7220   16.8850   20.8330 C.2       1 SUB1        0.242
     39 C77        -5.5340   16.7010   19.7570 C.2       1 SUB1        0.206
     40 C78        -3.8060   16.3680   18.3150 C.2       1 SUB1       -0.047
     41 C79        -4.4360   17.4240   17.6230 C.2       1 SUB1       -0.008
     42 N2         -9.7780   15.6110   28.8990 N.am      1 SUB1       -0.240
     43 N7         -8.6510   16.1960   26.9140 N.am      1 SUB1       -0.240
     44 N26       -11.0360   13.8670   34.8750 N.am      1 SUB1       -0.194
     45 N27       -11.6980   11.7240   35.9440 N.2       1 SUB1       -0.323
     46 N76        -6.4460   16.4610   20.8690 N.am      1 SUB1       -0.194
     47 N77        -4.4230   15.9820   19.4880 N.2       1 SUB1       -0.323
     48 O1         -8.4460   14.2020   27.8400 O.2       1 SUB1       -0.400
     49 O4        -11.8430   18.6910   28.7380 O.3       1 SUB1       -0.387
     50 O5         -9.9190   19.7200   27.0510 O.3       1 SUB1       -0.387
     51 O26       -11.0610   15.8000   36.0140 O.2       1 SUB1       -0.368
     52 O76        -8.1760   17.4900   19.8740 O.2       1 SUB1       -0.368
     53 S29       -12.4170   13.6750   37.2720 S.3       1 SUB1        0.011
     54 S79        -5.7880   17.8570   18.5520 S.3       1 SUB1        0.011
     55 H21        -8.7295   14.1961   30.0109 H         1 SUB1        0.068
     56 H22       -10.5126   14.1861   30.2285 H         1 SUB1        0.068
     57 H31       -11.3645   16.5243   29.8064 H         1 SUB1        0.061
     58 H41        -9.9160   18.3470   29.3213 H         1 SUB1        0.064
     59 H51       -10.8082   17.9486   26.4448 H         1 SUB1        0.064
     60 H61        -8.4411   18.0321   26.0428 H         1 SUB1        0.061
     61 H71        -7.8951   14.5808   25.8196 H         1 SUB1        0.068
     62 H72        -6.9857   16.1205   25.6496 H         1 SUB1        0.068
     63 H91       -10.7681   14.2020   32.4693 H         1 SUB1        0.061
     64 H111       -9.1401   17.3908   34.9007 H         1 SUB1        0.061
     65 H121       -7.9054   18.2769   32.9139 H         1 SUB1        0.061
     66 H131       -8.1288   17.1248   30.7056 H         1 SUB1        0.059
     67 H161      -12.4231   10.1692   37.2629 H         1 SUB1        0.050
     68 H171      -13.3283   12.0298   38.9148 H         1 SUB1        0.057
     69 H181      -11.5542   15.6728   26.9190 H         1 SUB1        0.045
     70 H182      -12.8176   16.6334   27.7603 H         1 SUB1        0.045
     71 H201      -11.5120   13.3235   27.1311 H         1 SUB1        0.056
     72 H211      -12.2941   11.2507   28.2845 H         1 SUB1        0.060
     73 H221      -13.7884   11.3987   30.2683 H         1 SUB1        0.056
     74 H231      -14.5310   13.6355   31.1141 H         1 SUB1        0.060
     75 H241      -13.7397   15.7076   29.9746 H         1 SUB1        0.056
     76 H251       -7.6675   17.6004   28.9148 H         1 SUB1        0.045
     77 H252       -7.8618   19.2506   28.2323 H         1 SUB1        0.045
     78 H271       -6.7263   19.7269   25.9663 H         1 SUB1        0.056
     79 H281       -4.5553   19.4911   24.7535 H         1 SUB1        0.060
     80 H291       -2.9459   17.7133   25.4505 H         1 SUB1        0.056
     81 H301       -3.4902   16.1823   27.3301 H         1 SUB1        0.060
     82 H311       -5.6726   16.3948   28.5355 H         1 SUB1        0.056
     83 H331       -6.8264   16.2383   23.3417 H         1 SUB1        0.061
     84 H351      -10.4228   16.7148   20.9827 H         1 SUB1        0.061
     85 H361      -11.7990   16.1730   22.9879 H         1 SUB1        0.061
     86 H371      -10.6983   15.6900   25.1780 H         1 SUB1        0.059
     87 H401       -2.8976   15.8913   17.9497 H         1 SUB1        0.050
     88 H411       -4.1184   17.8710   16.6821 H         1 SUB1        0.057
     89 H441      -10.7933   13.4219   34.0130 H         1 SUB1        0.241
     90 H461       -6.1158   15.9707   21.6756 H         1 SUB1        0.241
     91 H491      -11.6974   19.6196   28.6007 H         1 SUB1        0.210
     92 H501      -10.7502   20.1660   27.1638 H         1 SUB1        0.210
@<TRIPOS>BOND
     1    1   48 2  
     2    1   43 am 
     3    1   42 am 
     4   42    3 1  
     5   42    2 1  
     6    2    8 1  
     7    8   13 ar 
     8    8    9 ar 
     9    9   10 ar 
    10   10   14 1  
    11   10   11 ar 
    12   11   12 ar 
    13   12   13 ar 
    14   14   51 2  
    15   14   44 am 
    16   44   15 am 
    17   15   45 2  
    18   15   53 1  
    19   53   17 1  
    20   17   16 2  
    21   16   45 1  
    22    3   18 1  
    23    3    4 1  
    24    4   49 1  
    25    4    5 1  
    26    5   50 1  
    27    5    6 1  
    28    6   43 1  
    29    6   25 1  
    30   25   26 1  
    31   26   31 ar 
    32   26   27 ar 
    33   27   28 ar 
    34   28   29 ar 
    35   29   30 ar 
    36   30   31 ar 
    37   43    7 1  
    38    7   32 1  
    39   32   37 ar 
    40   32   33 ar 
    41   33   34 ar 
    42   34   38 1  
    43   34   35 ar 
    44   35   36 ar 
    45   36   37 ar 
    46   38   46 am 
    47   38   52 2  
    48   46   39 am 
    49   39   47 2  
    50   39   54 1  
    51   54   41 1  
    52   41   40 2  
    53   40   47 1  
    54   18   19 1  
    55   19   24 ar 
    56   19   20 ar 
    57   20   21 ar 
    58   21   22 ar 
    59   22   23 ar 
    60   23   24 ar 
    61    2   55 1  
    62    2   56 1  
    63    3   57 1  
    64    4   58 1  
    65    5   59 1  
    66    6   60 1  
    67    7   61 1  
    68    7   62 1  
    69    9   63 1  
    70   11   64 1  
    71   12   65 1  
    72   13   66 1  
    73   16   67 1  
    74   17   68 1  
    75   18   69 1  
    76   18   70 1  
    77   20   71 1  
    78   21   72 1  
    79   22   73 1  
    80   23   74 1  
    81   24   75 1  
    82   25   76 1  
    83   25   77 1  
    84   27   78 1  
    85   28   79 1  
    86   29   80 1  
    87   30   81 1  
    88   31   82 1  
    89   33   83 1  
    90   35   84 1  
    91   36   85 1  
    92   37   86 1  
    93   40   87 1  
    94   41   88 1  
    95   44   89 1  
    96   46   90 1  
    97   49   91 1  
    98   50   92 1  
@<TRIPOS>SUBSTRUCTURE
     1 SUB1        1 GROUP

