### 
### Created by X-TOOL on Mon Oct 24 22:01:06 2005
### 

@<TRIPOS>MOLECULE
1df8_ligand
   31    32     1     0     0
SMALL
GAST_HUCK


@<TRIPOS>ATOM
      1 C11        32.5640   18.1390   14.0710 C.2       1 SUB1        0.028
      2 O11        33.4260   17.4630   13.4730 O.co2     1 SUB1       -0.567
      3 O12        32.5320   19.3920   13.9660 O.co2     1 SUB1       -0.567
      4 C10        31.5990   17.4500   14.9620 C.3       1 SUB1       -0.014
      5 C9         31.2260   16.0460   14.5600 C.3       1 SUB1       -0.041
      6 C8         30.5160   16.0360   13.2000 C.3       1 SUB1       -0.049
      7 C7         30.0160   14.6260   12.8220 C.3       1 SUB1       -0.039
      8 C2         29.2080   14.5510   11.5450 C.3       1 SUB1        0.030
      9 S1         27.5110   15.2280   11.7030 S.3       1 SUB1       -0.153
     10 C6         27.1670   14.6500   10.0230 C.3       1 SUB1        0.019
     11 C5         27.7360   13.2480    9.9740 C.3       1 SUB1        0.075
     12 N1         26.8850   12.1810   10.4970 N.am      1 SUB1       -0.267
     13 C3         27.4580   11.5460   11.5290 C.2       1 SUB1        0.258
     14 O3         26.9770   10.6020   12.2050 O.2       1 SUB1       -0.401
     15 N2         28.6480   12.1210   11.8210 N.am      1 SUB1       -0.267
     16 C4         28.9670   13.2060   10.9010 C.3       1 SUB1        0.078
     17 H41        30.6773   18.0496   14.9901 H         1 SUB1        0.048
     18 H42        32.0396   17.4074   15.9690 H         1 SUB1        0.048
     19 H51        30.5543   15.6202   15.3200 H         1 SUB1        0.030
     20 H52        32.1388   15.4357   14.4941 H         1 SUB1        0.030
     21 H61        31.2199   16.3822   12.4288 H         1 SUB1        0.027
     22 H62        29.6547   16.7188   13.2435 H         1 SUB1        0.027
     23 H71        29.3871   14.2557   13.6450 H         1 SUB1        0.028
     24 H72        30.8936   13.9726   12.7085 H         1 SUB1        0.028
     25 H81        29.7604   15.1656   10.8190 H         1 SUB1        0.043
     26 H101       27.6615   15.2953    9.2820 H         1 SUB1        0.040
     27 H102       26.0838   14.6357    9.8320 H         1 SUB1        0.040
     28 H111       28.0124   13.0186    8.9343 H         1 SUB1        0.058
     29 H121       25.9837   11.9522   10.1291 H         1 SUB1        0.185
     30 H151       29.2374   11.8359   12.5768 H         1 SUB1        0.185
     31 H161       29.8671   12.9428   10.3261 H         1 SUB1        0.059
@<TRIPOS>BOND
     1    1    4 1  
     2    1    3 2  
     3    1    2 2  
     4    4    5 1  
     5    5    6 1  
     6    6    7 1  
     7    7    8 1  
     8    8   16 1  
     9    8    9 1  
    10    9   10 1  
    11   10   11 1  
    12   11   16 1  
    13   11   12 1  
    14   12   13 am 
    15   13   15 am 
    16   13   14 2  
    17   15   16 1  
    18    4   17 1  
    19    4   18 1  
    20    5   19 1  
    21    5   20 1  
    22    6   21 1  
    23    6   22 1  
    24    7   23 1  
    25    7   24 1  
    26    8   25 1  
    27   10   26 1  
    28   10   27 1  
    29   11   28 1  
    30   12   29 1  
    31   15   30 1  
    32   16   31 1  
@<TRIPOS>SUBSTRUCTURE
     1 SUB1        1 GROUP

