### 
### Created by X-TOOL on Mon Oct 24 23:59:10 2005
### 

@<TRIPOS>MOLECULE
1ik4_ligand
   14    13     1     0     0
SMALL
GAST_HUCK


@<TRIPOS>ATOM
      1 C1         86.1180  -15.6070   65.3720 C.2       1 SUB1        0.229
      2 C2         85.7010  -14.6110   66.4400 C.3       1 SUB1        0.156
      3 N2         87.2920  -16.1290   65.5670 N.am      1 SUB1       -0.162
      4 O2         87.7330  -17.0480   64.6530 O.3       1 SUB1       -0.272
      5 O1         85.2920  -15.8030   64.4670 O.2       1 SUB1       -0.394
      6 O1P        84.9090  -13.6700   65.7870 O.3       1 SUB1       -0.301
      7 O2P        82.6140  -12.9430   66.6190 O.co2     1 SUB1       -0.535
      8 O3P        84.7290  -12.3590   68.3190 O.co2     1 SUB1       -0.535
      9 O4P        84.1870  -11.0950   65.8320 O.co2     1 SUB1       -0.535
     10 P          84.2080  -12.4360   66.7460 P.3       1 SUB1        0.207
     11 H21        86.5856  -14.1283   66.8811 H         1 SUB1        0.086
     12 H22        85.1255  -15.1146   67.2307 H         1 SUB1        0.086
     13 H31        87.8516  -15.8695   66.3541 H         1 SUB1        0.222
     14 H41        88.5969  -17.3533   64.9041 H         1 SUB1        0.249
@<TRIPOS>BOND
     1    1    5 2  
     2    1    3 am 
     3    1    2 1  
     4    2    6 1  
     5    6   10 1  
     6   10    7 2  
     7   10    8 2  
     8   10    9 2  
     9    3    4 1  
    10    2   11 1  
    11    2   12 1  
    12    3   13 1  
    13    4   14 1  
@<TRIPOS>SUBSTRUCTURE
     1 SUB1        1 GROUP

