### 
### Created by X-TOOL on Mon Oct 24 22:47:58 2005
### 

@<TRIPOS>MOLECULE
1v2n_ligand
   54    56     1     0     0
SMALL
GAST_HUCK


@<TRIPOS>ATOM
      1 C8         43.6060   22.6170   51.1030 C.2       1 SUB1       -0.044
      2 C9         44.1480   21.4790   51.9700 C.ar      1 SUB1       -0.029
      3 C14        44.9630   21.7290   53.1220 C.ar      1 SUB1       -0.052
      4 C13        45.4370   20.6620   53.9120 C.ar      1 SUB1       -0.008
      5 C10        43.8520   20.1330   51.6060 C.ar      1 SUB1       -0.052
      6 C11        44.3330   19.0570   52.4030 C.ar      1 SUB1       -0.008
      7 C12        45.1400   19.3200   53.5490 C.ar      1 SUB1        0.184
      8 C15        45.6570   18.1900   54.4070 C.cat     1 SUB1        0.316
      9 N16        45.1280   16.9340   54.2960 N.pl3     1 SUB1       -0.200
     10 N17        46.6630   18.4220   55.3090 N.pl3     1 SUB1       -0.200
     11 C18        42.1130   26.2480   54.3230 C.2       1 SUB1       -0.044
     12 C19        40.8730   25.7440   55.0500 C.ar      1 SUB1       -0.029
     13 C20        40.8900   25.6100   56.4690 C.ar      1 SUB1       -0.052
     14 C21        39.7270   25.1470   57.1580 C.ar      1 SUB1       -0.008
     15 C24        39.6900   25.4080   54.3320 C.ar      1 SUB1       -0.052
     16 C23        38.5350   24.9480   55.0130 C.ar      1 SUB1       -0.008
     17 C22        38.5420   24.8140   56.4250 C.ar      1 SUB1        0.184
     18 C25        37.2940   24.3240   57.1370 C.cat     1 SUB1        0.316
     19 N26        36.5080   23.3580   56.5620 N.pl3     1 SUB1       -0.200
     20 N27        36.9320   24.8480   58.3480 N.pl3     1 SUB1       -0.200
     21 C1         43.0560   23.7970   51.5100 C.2       1 SUB1        0.019
     22 C2         42.6450   24.7630   50.4190 C.3       1 SUB1       -0.010
     23 C3         43.7200   25.8790   50.2600 C.3       1 SUB1       -0.040
     24 C          43.5940   26.9650   51.3760 C.3       1 SUB1       -0.040
     25 C4         43.9970   26.4030   52.7760 C.3       1 SUB1       -0.010
     26 C5         42.8480   25.6160   53.3680 C.2       1 SUB1        0.019
     27 C6         42.7070   24.1870   52.9230 C.2       1 SUB1        0.162
     28 O7         42.3200   23.3360   53.7180 O.2       1 SUB1       -0.369
     29 H11        43.6669   22.4661   50.0262 H         1 SUB1        0.057
     30 H31        45.2174   22.7485   53.3885 H         1 SUB1        0.061
     31 H41        46.0287   20.8651   54.7973 H         1 SUB1        0.066
     32 H51        43.2599   19.9290   50.7212 H         1 SUB1        0.061
     33 H61        44.0856   18.0353   52.1386 H         1 SUB1        0.066
     34 H91        45.4874   16.1698   54.8857 H         1 SUB1        0.192
     35 H92        44.3701   16.7521   53.6227 H         1 SUB1        0.192
     36 H101       47.0668   19.3653   55.3987 H         1 SUB1        0.192
     37 H102       47.0150   17.6530   55.8970 H         1 SUB1        0.192
     38 H111       42.4556   27.2428   54.6038 H         1 SUB1        0.057
     39 H131       41.7859   25.8595   57.0259 H         1 SUB1        0.061
     40 H141       39.7414   25.0475   58.2373 H         1 SUB1        0.066
     41 H151       39.6725   25.5051   53.2525 H         1 SUB1        0.061
     42 H161       37.6420   24.6974   54.4519 H         1 SUB1        0.066
     43 H191       35.6616   23.0269   57.0467 H         1 SUB1        0.192
     44 H192       36.7642   22.9638   55.6456 H         1 SUB1        0.192
     45 H201       37.5141   25.5739   58.7898 H         1 SUB1        0.192
     46 H202       36.0774   24.5166   58.8178 H         1 SUB1        0.192
     47 H221       41.6807   25.2216   50.6833 H         1 SUB1        0.045
     48 H222       42.5436   24.2175   49.4692 H         1 SUB1        0.045
     49 H231       43.5927   26.3596   49.2788 H         1 SUB1        0.029
     50 H232       44.7191   25.4226   50.3179 H         1 SUB1        0.029
     51 H241       42.5516   27.3136   51.4183 H         1 SUB1        0.029
     52 H242       44.2533   27.8097   51.1276 H         1 SUB1        0.029
     53 H251       44.2491   27.2388   53.4453 H         1 SUB1        0.045
     54 H252       44.8712   25.7445   52.6663 H         1 SUB1        0.045
@<TRIPOS>BOND
     1    1    2 1  
     2   21    1 2  
     3    2    3 ar 
     4    2    5 ar 
     5    3    4 ar 
     6    4    7 ar 
     7    5    6 ar 
     8    6    7 ar 
     9    7    8 1  
    10    8    9 1  
    11    8   10 1  
    12   11   12 1  
    13   26   11 2  
    14   12   13 ar 
    15   12   15 ar 
    16   13   14 ar 
    17   14   17 ar 
    18   15   16 ar 
    19   16   17 ar 
    20   17   18 1  
    21   18   19 1  
    22   18   20 1  
    23   22   21 1  
    24   21   27 1  
    25   23   22 1  
    26   24   23 1  
    27   25   24 1  
    28   25   26 1  
    29   26   27 1  
    30   27   28 2  
    31    1   29 1  
    32    3   30 1  
    33    4   31 1  
    34    5   32 1  
    35    6   33 1  
    36    9   34 1  
    37    9   35 1  
    38   10   36 1  
    39   10   37 1  
    40   11   38 1  
    41   13   39 1  
    42   14   40 1  
    43   15   41 1  
    44   16   42 1  
    45   19   43 1  
    46   19   44 1  
    47   20   45 1  
    48   20   46 1  
    49   22   47 1  
    50   22   48 1  
    51   23   49 1  
    52   23   50 1  
    53   24   51 1  
    54   24   52 1  
    55   25   53 1  
    56   25   54 1  
@<TRIPOS>SUBSTRUCTURE
     1 SUB1        1 GROUP

