### 
### Created by X-TOOL on Sun Jun  3 11:19:09 2007
### 

@<TRIPOS>MOLECULE
2ccb_ligand
   47    49     1     0     0
SMALL
GAST_HUCK


@<TRIPOS>ATOM
      1 N1          0.2290   22.7140   -2.8930 N.2       1 SUB1       -0.260
      2 C2         -0.4650   22.3310   -3.9920 C.2       1 SUB1        0.262
      3 O2         -0.9230   23.2470   -4.7080 O.2       1 SUB1       -0.360
      4 N3         -0.6390   21.0430   -4.3260 N.am      1 SUB1       -0.188
      5 C4         -0.1950   20.0310   -3.5950 C.2       1 SUB1        0.272
      6 O4         -0.3580   18.8400   -3.9200 O.2       1 SUB1       -0.363
      7 C4A         0.5670   20.3570   -2.3690 C.2       1 SUB1        0.202
      8 N5          1.0610   19.3890   -1.5810 N.2       1 SUB1       -0.244
      9 C5A         1.7560   19.7200   -0.4530 C.ar      1 SUB1        0.081
     10 C6          2.2520   18.7100    0.3550 C.ar      1 SUB1       -0.043
     11 C7          2.9770   19.0210    1.5140 C.ar      1 SUB1       -0.045
     12 C7M         3.5330   17.8890    2.3720 C.3       1 SUB1       -0.036
     13 C8          3.1920   20.4430    1.8740 C.ar      1 SUB1       -0.043
     14 C8M         3.9660   20.7820    3.1350 C.3       1 SUB1       -0.032
     15 C9          2.6870   21.4750    1.0810 C.ar      1 SUB1       -0.028
     16 C9A         1.9690   21.1450   -0.0880 C.ar      1 SUB1        0.099
     17 N10         1.4570   22.1720   -0.9220 N.pl3     1 SUB1       -0.220
     18 C10         0.7390   21.7850   -2.0650 C.2       1 SUB1        0.180
     19 C1          1.5960   23.6000   -0.5930 C.3       1 SUB1        0.086
     20 C2          2.5700   24.3800   -1.4470 C.3       1 SUB1        0.109
     21 O2          3.8580   24.1470   -0.8860 O.3       1 SUB1       -0.387
     22 C3          2.1770   25.8630   -1.5060 C.3       1 SUB1        0.111
     23 O3          2.0800   26.3820   -0.1790 O.3       1 SUB1       -0.387
     24 C4          0.8510   25.9910   -2.3170 C.3       1 SUB1        0.106
     25 O4          1.1430   25.7710   -3.6980 O.3       1 SUB1       -0.387
     26 C5          0.0800   27.3010   -2.1830 C.3       1 SUB1        0.073
     27 O5         -1.0660   27.3250   -3.0630 O.3       1 SUB1       -0.392
     28 H          -1.1400   20.8317   -5.1890 H         1 SUB1        0.227
     29 H           2.0776   17.6676    0.0882 H         1 SUB1        0.056
     30 H           4.6187   17.9721    2.4217 H         1 SUB1        0.036
     31 H           3.1157   17.9576    3.3766 H         1 SUB1        0.036
     32 H           3.2606   16.9312    1.9286 H         1 SUB1        0.036
     33 H           3.4540   20.3584    3.9990 H         1 SUB1        0.039
     34 H           4.9708   20.3652    3.0661 H         1 SUB1        0.039
     35 H           4.0271   21.8650    3.2422 H         1 SUB1        0.039
     36 H           2.8445   22.5169    1.3598 H         1 SUB1        0.049
     37 H           1.9765   23.6453    0.4274 H         1 SUB1        0.062
     38 H           0.6164   24.0499   -0.7542 H         1 SUB1        0.062
     39 H           2.5651   24.0561   -2.4877 H         1 SUB1        0.065
     40 H           4.5183   24.6232   -1.3947 H         1 SUB1        0.210
     41 H           2.9337   26.4578   -2.0175 H         1 SUB1        0.065
     42 H           1.8343   27.3093   -0.2164 H         1 SUB1        0.210
     43 H           0.1889   25.2409   -1.8845 H         1 SUB1        0.064
     44 H           0.3350   25.8467   -4.2108 H         1 SUB1        0.210
     45 H           0.7425   28.1238   -2.4518 H         1 SUB1        0.058
     46 H          -0.2688   27.3959   -1.1547 H         1 SUB1        0.058
     47 H          -0.7718   27.2337   -3.9723 H         1 SUB1        0.209
@<TRIPOS>BOND
     1    1    2 am 
     2    1   18 2  
     3    2    3 2  
     4    2    4 am 
     5    4    5 am 
     6    5    6 2  
     7    5    7 1  
     8    7    8 2  
     9    7   18 1  
    10    8    9 1  
    11    9   10 ar 
    12    9   16 ar 
    13   10   11 ar 
    14   11   12 1  
    15   11   13 ar 
    16   13   14 1  
    17   13   15 ar 
    18   15   16 ar 
    19   16   17 1  
    20   17   18 1  
    21   17   19 1  
    22   19   20 1  
    23   20   21 1  
    24   20   22 1  
    25   22   23 1  
    26   22   24 1  
    27   24   25 1  
    28   24   26 1  
    29   26   27 1  
    30    4   28 1  
    31   10   29 1  
    32   12   30 1  
    33   12   31 1  
    34   12   32 1  
    35   14   33 1  
    36   14   34 1  
    37   14   35 1  
    38   15   36 1  
    39   19   37 1  
    40   19   38 1  
    41   20   39 1  
    42   21   40 1  
    43   22   41 1  
    44   23   42 1  
    45   24   43 1  
    46   25   44 1  
    47   26   45 1  
    48   26   46 1  
    49   27   47 1  
@<TRIPOS>SUBSTRUCTURE
     1 SUB1        1 GROUP

