2ccb_ligand
  -I-interpret- 

 47 49  0  0  0  0  0  0  0  0999 V2000
    0.2290   22.7140   -2.8930 N   0  0  0  0  0
   -0.4650   22.3310   -3.9920 C   0  0  0  0  0
   -0.9230   23.2470   -4.7080 O   0  0  0  0  0
   -0.6390   21.0430   -4.3260 N   0  0  0  0  0
   -0.1950   20.0310   -3.5950 C   0  0  0  0  0
   -0.3580   18.8400   -3.9200 O   0  0  0  0  0
    0.5670   20.3570   -2.3690 C   0  0  0  0  0
    1.0610   19.3890   -1.5810 N   0  0  0  0  0
    1.7560   19.7200   -0.4530 C   0  0  0  0  0
    2.2520   18.7100    0.3550 C   0  0  0  0  0
    2.9770   19.0210    1.5140 C   0  0  0  0  0
    3.5330   17.8890    2.3720 C   0  0  0  0  0
    3.1920   20.4430    1.8740 C   0  0  0  0  0
    3.9660   20.7820    3.1350 C   0  0  0  0  0
    2.6870   21.4750    1.0810 C   0  0  0  0  0
    1.9690   21.1450   -0.0880 C   0  0  0  0  0
    1.4570   22.1720   -0.9220 N   0  0  0  0  0
    0.7390   21.7850   -2.0650 C   0  0  0  0  0
    1.5960   23.6000   -0.5930 C   0  0  0  0  0
    2.5700   24.3800   -1.4470 C   0  0  0  0  0
    3.8580   24.1470   -0.8860 O   0  0  0  0  0
    2.1770   25.8630   -1.5060 C   0  0  0  0  0
    2.0800   26.3820   -0.1790 O   0  0  0  0  0
    0.8510   25.9910   -2.3170 C   0  0  0  0  0
    1.1430   25.7710   -3.6980 O   0  0  0  0  0
    0.0800   27.3010   -2.1830 C   0  0  0  0  0
   -1.0660   27.3250   -3.0630 O   0  0  0  0  0
   -1.1400   20.8317   -5.1890 H   0  0  0  0  0
    2.0776   17.6676    0.0882 H   0  0  0  0  0
    4.6187   17.9721    2.4217 H   0  0  0  0  0
    3.1157   17.9576    3.3766 H   0  0  0  0  0
    3.2606   16.9312    1.9286 H   0  0  0  0  0
    3.4540   20.3584    3.9990 H   0  0  0  0  0
    4.9708   20.3652    3.0661 H   0  0  0  0  0
    4.0271   21.8650    3.2422 H   0  0  0  0  0
    2.8445   22.5169    1.3598 H   0  0  0  0  0
    1.9765   23.6453    0.4274 H   0  0  0  0  0
    0.6164   24.0499   -0.7542 H   0  0  0  0  0
    2.5651   24.0561   -2.4877 H   0  0  0  0  0
    4.5183   24.6232   -1.3947 H   0  0  0  0  0
    2.9337   26.4578   -2.0175 H   0  0  0  0  0
    1.8343   27.3093   -0.2164 H   0  0  0  0  0
    0.1889   25.2409   -1.8845 H   0  0  0  0  0
    0.3350   25.8467   -4.2108 H   0  0  0  0  0
    0.7425   28.1238   -2.4518 H   0  0  0  0  0
   -0.2688   27.3959   -1.1547 H   0  0  0  0  0
   -0.7718   27.2337   -3.9723 H   0  0  0  0  0
  1  2  1  0  0  0
  1 18  2  0  0  0
  2  3  2  0  0  0
  2  4  1  0  0  0
  4  5  1  0  0  0
  5  6  2  0  0  0
  5  7  1  0  0  0
  7  8  2  0  0  0
  7 18  1  0  0  0
  8  9  1  0  0  0
  9 10  4  0  0  0
  9 16  4  0  0  0
 10 11  4  0  0  0
 11 12  1  0  0  0
 11 13  4  0  0  0
 13 14  1  0  0  0
 13 15  4  0  0  0
 15 16  4  0  0  0
 16 17  1  0  0  0
 17 18  1  0  0  0
 17 19  1  0  0  0
 19 20  1  0  0  0
 20 21  1  0  0  0
 20 22  1  0  0  0
 22 23  1  0  0  0
 22 24  1  0  0  0
 24 25  1  0  0  0
 24 26  1  0  0  0
 26 27  1  0  0  0
  4 28  1  0  0  0
 10 29  1  0  0  0
 12 30  1  0  0  0
 12 31  1  0  0  0
 12 32  1  0  0  0
 14 33  1  0  0  0
 14 34  1  0  0  0
 14 35  1  0  0  0
 15 36  1  0  0  0
 19 37  1  0  0  0
 19 38  1  0  0  0
 20 39  1  0  0  0
 21 40  1  0  0  0
 22 41  1  0  0  0
 23 42  1  0  0  0
 24 43  1  0  0  0
 25 44  1  0  0  0
 26 45  1  0  0  0
 26 46  1  0  0  0
 27 47  1  0  0  0
M  END
$$$$
