### 
### Created by X-TOOL on Sun Jun  3 11:55:40 2007
### 

@<TRIPOS>MOLECULE
2bys_ligand
   52    54     1     0     0
SMALL
GAST_HUCK


@<TRIPOS>ATOM
      1 O1         -5.8150   22.5840    6.1490 O.2       1 SUB1       -0.378
      2 C3         -5.8710   23.8000    6.0880 C.2       1 SUB1        0.134
      3 C1         -5.2930   24.6120    7.2290 C.ar      1 SUB1        0.033
      4 C2         -4.7700   23.9560    8.3510 C.ar      1 SUB1       -0.043
      5 C5         -4.2310   24.6830    9.4140 C.ar      1 SUB1       -0.056
      6 C6         -4.2090   26.0760    9.3730 C.ar      1 SUB1       -0.057
      7 C7         -4.7210   26.7400    8.2640 C.ar      1 SUB1       -0.056
      8 C4         -5.2540   26.0090    7.2010 C.ar      1 SUB1       -0.043
      9 C8         -6.4790   24.4100    4.8370 C.3       1 SUB1        0.038
     10 C9         -7.9930   24.2070    4.6420 C.3       1 SUB1        0.026
     11 C12        -8.4510   22.7860    4.9150 C.3       1 SUB1       -0.035
     12 C15        -9.9070   22.6750    4.5290 C.3       1 SUB1       -0.050
     13 C13       -10.0290   22.7100    3.0170 C.3       1 SUB1       -0.037
     14 C11        -9.2690   23.8540    2.3380 C.3       1 SUB1        0.015
     15 N1         -8.3160   24.5730    3.2340 N.3       1 SUB1       -0.297
     16 C22        -8.3140   26.0140    3.0040 C.3       1 SUB1       -0.012
     17 C14        -8.4900   23.3200    1.1190 C.3       1 SUB1       -0.001
     18 C16        -8.0770   24.4360    0.1550 C.3       1 SUB1        0.090
     19 O2         -6.7000   24.7440    0.3740 O.3       1 SUB1       -0.379
     20 C17        -8.2640   24.1150   -1.2910 C.ar      1 SUB1       -0.015
     21 C18        -7.8610   22.8970   -1.8380 C.ar      1 SUB1       -0.058
     22 C20        -8.0450   22.6310   -3.1970 C.ar      1 SUB1       -0.068
     23 C21        -8.6260   23.5850   -4.0310 C.ar      1 SUB1       -0.069
     24 C10        -9.0150   24.8120   -3.4920 C.ar      1 SUB1       -0.068
     25 C19        -8.8300   25.0750   -2.1340 C.ar      1 SUB1       -0.058
     26 H          -4.7841   22.8670    8.3944 H         1 SUB1        0.067
     27 H          -3.8257   24.1590   10.2796 H         1 SUB1        0.063
     28 H          -3.7925   26.6420   10.2062 H         1 SUB1        0.065
     29 H          -4.7062   27.8292    8.2247 H         1 SUB1        0.063
     30 H          -5.6473   26.5376    6.3326 H         1 SUB1        0.067
     31 H          -5.9964   23.9154    3.9940 H         1 SUB1        0.050
     32 H          -6.3263   25.4860    4.9202 H         1 SUB1        0.050
     33 H          -8.5166   24.8367    5.3613 H         1 SUB1        0.049
     34 H          -8.3250   22.5489    5.9714 H         1 SUB1        0.028
     35 H          -7.8552   22.0827    4.3332 H         1 SUB1        0.028
     36 H         -10.4631   23.5079    4.9593 H         1 SUB1        0.027
     37 H         -10.3140   21.7369    4.9063 H         1 SUB1        0.027
     38 H         -11.0852   22.8515    2.7877 H         1 SUB1        0.028
     39 H          -9.6012   21.7798    2.6432 H         1 SUB1        0.028
     40 H         -10.0315   24.5737    2.0402 H         1 SUB1        0.047
     41 H          -9.0573   26.4844    3.6476 H         1 SUB1        0.039
     42 H          -7.3269   26.4158    3.2328 H         1 SUB1        0.039
     43 H          -8.5562   26.2144    1.9603 H         1 SUB1        0.039
     44 H          -9.1398   22.6314    0.5789 H         1 SUB1        0.033
     45 H          -7.5835   22.8368    1.4835 H         1 SUB1        0.033
     46 H          -8.7354   25.2778    0.3697 H         1 SUB1        0.076
     47 H          -6.4303   25.4433   -0.2259 H         1 SUB1        0.213
     48 H          -7.3979   22.1452   -1.1988 H         1 SUB1        0.056
     49 H          -7.7322   21.6711   -3.6080 H         1 SUB1        0.060
     50 H          -8.7745   23.3753   -5.0903 H         1 SUB1        0.056
     51 H          -9.4654   25.5685   -4.1346 H         1 SUB1        0.060
     52 H          -9.1304   26.0402   -1.7263 H         1 SUB1        0.056
@<TRIPOS>BOND
     1    1    2 2  
     2    2    3 1  
     3    2    9 1  
     4    3    4 ar 
     5    3    8 ar 
     6    4    5 ar 
     7    5    6 ar 
     8    6    7 ar 
     9    7    8 ar 
    10    9   10 1  
    11   10   11 1  
    12   10   15 1  
    13   11   12 1  
    14   12   13 1  
    15   13   14 1  
    16   14   15 1  
    17   14   17 1  
    18   15   16 1  
    19   17   18 1  
    20   18   19 1  
    21   18   20 1  
    22   20   21 ar 
    23   20   25 ar 
    24   21   22 ar 
    25   22   23 ar 
    26   23   24 ar 
    27   24   25 ar 
    28    4   26 1  
    29    5   27 1  
    30    6   28 1  
    31    7   29 1  
    32    8   30 1  
    33    9   31 1  
    34    9   32 1  
    35   10   33 1  
    36   11   34 1  
    37   11   35 1  
    38   12   36 1  
    39   12   37 1  
    40   13   38 1  
    41   13   39 1  
    42   14   40 1  
    43   16   41 1  
    44   16   42 1  
    45   16   43 1  
    46   17   44 1  
    47   17   45 1  
    48   18   46 1  
    49   19   47 1  
    50   21   48 1  
    51   22   49 1  
    52   23   50 1  
    53   24   51 1  
    54   25   52 1  
@<TRIPOS>SUBSTRUCTURE
     1 SUB1        1 GROUP

