2bys_ligand
  -I-interpret- 

 52 54  0  0  0  0  0  0  0  0999 V2000
   -5.8150   22.5840    6.1490 O   0  0  0  0  0
   -5.8710   23.8000    6.0880 C   0  0  0  0  0
   -5.2930   24.6120    7.2290 C   0  0  0  0  0
   -4.7700   23.9560    8.3510 C   0  0  0  0  0
   -4.2310   24.6830    9.4140 C   0  0  0  0  0
   -4.2090   26.0760    9.3730 C   0  0  0  0  0
   -4.7210   26.7400    8.2640 C   0  0  0  0  0
   -5.2540   26.0090    7.2010 C   0  0  0  0  0
   -6.4790   24.4100    4.8370 C   0  0  0  0  0
   -7.9930   24.2070    4.6420 C   0  0  0  0  0
   -8.4510   22.7860    4.9150 C   0  0  0  0  0
   -9.9070   22.6750    4.5290 C   0  0  0  0  0
  -10.0290   22.7100    3.0170 C   0  0  0  0  0
   -9.2690   23.8540    2.3380 C   0  0  0  0  0
   -8.3160   24.5730    3.2340 N   0  0  0  0  0
   -8.3140   26.0140    3.0040 C   0  0  0  0  0
   -8.4900   23.3200    1.1190 C   0  0  0  0  0
   -8.0770   24.4360    0.1550 C   0  0  0  0  0
   -6.7000   24.7440    0.3740 O   0  0  0  0  0
   -8.2640   24.1150   -1.2910 C   0  0  0  0  0
   -7.8610   22.8970   -1.8380 C   0  0  0  0  0
   -8.0450   22.6310   -3.1970 C   0  0  0  0  0
   -8.6260   23.5850   -4.0310 C   0  0  0  0  0
   -9.0150   24.8120   -3.4920 C   0  0  0  0  0
   -8.8300   25.0750   -2.1340 C   0  0  0  0  0
   -4.7841   22.8670    8.3944 H   0  0  0  0  0
   -3.8257   24.1590   10.2796 H   0  0  0  0  0
   -3.7925   26.6420   10.2062 H   0  0  0  0  0
   -4.7062   27.8292    8.2247 H   0  0  0  0  0
   -5.6473   26.5376    6.3326 H   0  0  0  0  0
   -5.9964   23.9154    3.9940 H   0  0  0  0  0
   -6.3263   25.4860    4.9202 H   0  0  0  0  0
   -8.5166   24.8367    5.3613 H   0  0  0  0  0
   -8.3250   22.5489    5.9714 H   0  0  0  0  0
   -7.8552   22.0827    4.3332 H   0  0  0  0  0
  -10.4631   23.5079    4.9593 H   0  0  0  0  0
  -10.3140   21.7369    4.9063 H   0  0  0  0  0
  -11.0852   22.8515    2.7877 H   0  0  0  0  0
   -9.6012   21.7798    2.6432 H   0  0  0  0  0
  -10.0315   24.5737    2.0402 H   0  0  0  0  0
   -9.0573   26.4844    3.6476 H   0  0  0  0  0
   -7.3269   26.4158    3.2328 H   0  0  0  0  0
   -8.5562   26.2144    1.9603 H   0  0  0  0  0
   -9.1398   22.6314    0.5789 H   0  0  0  0  0
   -7.5835   22.8368    1.4835 H   0  0  0  0  0
   -8.7354   25.2778    0.3697 H   0  0  0  0  0
   -6.4303   25.4433   -0.2259 H   0  0  0  0  0
   -7.3979   22.1452   -1.1988 H   0  0  0  0  0
   -7.7322   21.6711   -3.6080 H   0  0  0  0  0
   -8.7745   23.3753   -5.0903 H   0  0  0  0  0
   -9.4654   25.5685   -4.1346 H   0  0  0  0  0
   -9.1304   26.0402   -1.7263 H   0  0  0  0  0
  1  2  2  0  0  0
  2  3  1  0  0  0
  2  9  1  0  0  0
  3  4  4  0  0  0
  3  8  4  0  0  0
  4  5  4  0  0  0
  5  6  4  0  0  0
  6  7  4  0  0  0
  7  8  4  0  0  0
  9 10  1  0  0  0
 10 11  1  0  0  0
 10 15  1  0  0  0
 11 12  1  0  0  0
 12 13  1  0  0  0
 13 14  1  0  0  0
 14 15  1  0  0  0
 14 17  1  0  0  0
 15 16  1  0  0  0
 17 18  1  0  0  0
 18 19  1  0  0  0
 18 20  1  0  0  0
 20 21  4  0  0  0
 20 25  4  0  0  0
 21 22  4  0  0  0
 22 23  4  0  0  0
 23 24  4  0  0  0
 24 25  4  0  0  0
  4 26  1  0  0  0
  5 27  1  0  0  0
  6 28  1  0  0  0
  7 29  1  0  0  0
  8 30  1  0  0  0
  9 31  1  0  0  0
  9 32  1  0  0  0
 10 33  1  0  0  0
 11 34  1  0  0  0
 11 35  1  0  0  0
 12 36  1  0  0  0
 12 37  1  0  0  0
 13 38  1  0  0  0
 13 39  1  0  0  0
 14 40  1  0  0  0
 16 41  1  0  0  0
 16 42  1  0  0  0
 16 43  1  0  0  0
 17 44  1  0  0  0
 17 45  1  0  0  0
 18 46  1  0  0  0
 19 47  1  0  0  0
 21 48  1  0  0  0
 22 49  1  0  0  0
 23 50  1  0  0  0
 24 51  1  0  0  0
 25 52  1  0  0  0
M  END
$$$$
