3tlh_ligand
  -I-interpret- 

 66 67  0  0  0  0  0  0  0  0999 V2000
  -10.8980   15.6660   28.1900 C   0  0  0  0  0
  -10.6990   17.0740   27.5780 C   0  0  0  0  0
  -11.6950   17.9760   28.0890 O   0  0  0  0  0
  -12.2740   15.1240   27.7430 C   0  0  0  0  0
  -12.4980   13.6760   28.1510 C   0  0  0  0  0
  -13.4090   13.3590   29.1750 C   0  0  0  0  0
  -13.6320   12.0100   29.5310 C   0  0  0  0  0
  -12.8530   11.0060   28.9270 C   0  0  0  0  0
  -11.9990   11.3240   27.8520 C   0  0  0  0  0
  -11.7950   12.6610   27.4670 C   0  0  0  0  0
  -10.8640   15.6730   29.6610 N   0  0  0  0  0
  -10.1580   15.1010   31.9390 C   0  0  0  0  0
  -10.0020   14.9730   30.3970 C   0  0  0  0  0
   -9.1330   14.2470   29.9260 O   0  0  0  0  0
   -8.8090   15.3800   32.6590 C   0  0  0  0  0
   -8.1090   16.5860   32.0050 C   0  0  0  0  0
   -9.0100   15.6490   34.1650 C   0  0  0  0  0
  -10.7810   13.8790   32.5180 N   0  0  0  0  0
  -11.9140   13.9480   33.2250 C   0  0  0  0  0
  -12.2480   15.0360   33.6770 O   0  0  0  0  0
  -12.6740   12.5910   33.3750 C   0  0  0  0  0
  -14.1920   12.7440   33.5010 C   0  0  0  0  0
  -12.2180   11.8320   34.5640 N   0  0  0  0  0
  -12.4200   12.1700   35.8190 C   0  0  0  0  0
  -13.2290   13.0360   36.1140 O   0  0  0  0  0
  -11.6970   11.4700   36.7340 O   0  0  0  0  0
  -12.4270   11.2850   37.9560 C   0  0  0  0  0
  -12.8110    9.8050   37.9640 C   0  0  0  0  0
  -11.9130    8.8230   38.4190 C   0  0  0  0  0
  -12.2810    7.4590   38.4450 C   0  0  0  0  0
  -13.5420    7.0720   37.9440 C   0  0  0  0  0
  -14.4580    8.0550   37.5130 C   0  0  0  0  0
  -14.0920    9.4160   37.5090 C   0  0  0  0  0
  -10.1012   15.0041   27.8198 H   0  0  0  0  0
  -10.7905   17.0121   26.4836 H   0  0  0  0  0
   -9.6988   17.4481   27.8418 H   0  0  0  0  0
  -11.5658   18.8370   27.7088 H   0  0  0  0  0
  -12.3405   15.1947   26.6473 H   0  0  0  0  0
  -13.0606   15.7432   28.1988 H   0  0  0  0  0
  -13.9403   14.1503   29.6913 H   0  0  0  0  0
  -14.3925   11.7522   30.2592 H   0  0  0  0  0
  -12.9098    9.9859   29.2892 H   0  0  0  0  0
  -11.4936   10.5289   27.3158 H   0  0  0  0  0
  -11.1122   12.9070   26.6618 H   0  0  0  0  0
  -11.5328   16.2413   30.1404 H   0  0  0  0  0
  -10.8266   15.9524   32.1341 H   0  0  0  0  0
   -8.1665   14.4941   32.5474 H   0  0  0  0  0
   -7.1553   16.7790   32.5181 H   0  0  0  0  0
   -8.7547   17.4729   32.0857 H   0  0  0  0  0
   -7.9169   16.3675   30.9442 H   0  0  0  0  0
   -9.5100   14.7856   34.6281 H   0  0  0  0  0
   -9.6314   16.5470   34.2974 H   0  0  0  0  0
   -8.0319   15.8061   34.6432 H   0  0  0  0  0
  -10.3444   12.9907   32.3757 H   0  0  0  0  0
  -12.4612   11.9958   32.4748 H   0  0  0  0  0
  -14.6535   11.7506   33.6023 H   0  0  0  0  0
  -14.5862   13.2415   32.6026 H   0  0  0  0  0
  -14.4271   13.3497   34.3886 H   0  0  0  0  0
  -11.7109   10.9865   34.3968 H   0  0  0  0  0
  -13.3263   11.9183   37.9694 H   0  0  0  0  0
  -11.7959   11.5258   38.8242 H   0  0  0  0  0
  -10.9249    9.1165   38.7544 H   0  0  0  0  0
  -11.6006    6.7166   38.8462 H   0  0  0  0  0
  -13.8064    6.0221   37.8903 H   0  0  0  0  0
  -15.4482    7.7619   37.1833 H   0  0  0  0  0
  -14.7926   10.1646   37.1571 H   0  0  0  0  0
  1  2  1  0  0  0
  1  4  1  0  0  0
  1 11  1  0  0  0
  2  3  1  0  0  0
  4  5  1  0  0  0
  5  6  4  0  0  0
  5 10  4  0  0  0
  6  7  4  0  0  0
  7  8  4  0  0  0
  8  9  4  0  0  0
  9 10  4  0  0  0
 11 13  1  0  0  0
 13 12  1  0  0  0
 12 15  1  0  0  0
 12 18  1  0  0  0
 13 14  2  0  0  0
 15 16  1  0  0  0
 15 17  1  0  0  0
 18 19  1  0  0  0
 19 20  2  0  0  0
 19 21  1  0  0  0
 21 22  1  0  0  0
 21 23  1  0  0  0
 23 24  1  0  0  0
 24 25  2  0  0  0
 24 26  1  0  0  0
 26 27  1  0  0  0
 27 28  1  0  0  0
 28 29  4  0  0  0
 28 33  4  0  0  0
 29 30  4  0  0  0
 30 31  4  0  0  0
 31 32  4  0  0  0
 32 33  4  0  0  0
  1 34  1  0  0  0
  2 35  1  0  0  0
  2 36  1  0  0  0
  3 37  1  0  0  0
  4 38  1  0  0  0
  4 39  1  0  0  0
  6 40  1  0  0  0
  7 41  1  0  0  0
  8 42  1  0  0  0
  9 43  1  0  0  0
 10 44  1  0  0  0
 11 45  1  0  0  0
 12 46  1  0  0  0
 15 47  1  0  0  0
 16 48  1  0  0  0
 16 49  1  0  0  0
 16 50  1  0  0  0
 17 51  1  0  0  0
 17 52  1  0  0  0
 17 53  1  0  0  0
 18 54  1  0  0  0
 21 55  1  0  0  0
 22 56  1  0  0  0
 22 57  1  0  0  0
 22 58  1  0  0  0
 23 59  1  0  0  0
 27 60  1  0  0  0
 27 61  1  0  0  0
 29 62  1  0  0  0
 30 63  1  0  0  0
 31 64  1  0  0  0
 32 65  1  0  0  0
 33 66  1  0  0  0
M  END
$$$$
