### 
### Created by X-TOOL on Mon Oct 24 22:35:38 2005
### 

@<TRIPOS>MOLECULE
1d4l_ligand
   91    93     1     0     0
SMALL
GAST_HUCK


@<TRIPOS>ATOM
      1 H401        5.4036    5.3067    8.6471 H         1 SUB1        0.029
      2 H402        5.7347    4.1604    9.9899 H         1 SUB1        0.029
      3 H411        3.1635    3.7071    8.6062 H         1 SUB1        0.050
      4 H412        3.2891    5.3043    9.4185 H         1 SUB1        0.050
      5 H441        4.6490    3.1909    7.3440 H         1 SUB1        0.027
      6 H442        5.5541    2.2886    8.6064 H         1 SUB1        0.027
      7 H451        6.6022    3.3318    6.2616 H         1 SUB1        0.029
      8 H452        7.0631    4.5530    7.4957 H         1 SUB1        0.029
      9 H461        3.4019    1.7718    9.9107 H         1 SUB1        0.188
     10 H471        2.8976    2.3352   12.7949 H         1 SUB1        0.080
     11 H481        1.6453    0.1876   11.0199 H         1 SUB1        0.034
     12 H491        0.4402   -0.5459   13.0520 H         1 SUB1        0.023
     13 H492        1.4082    0.6032   14.0365 H         1 SUB1        0.023
     14 H493        2.2147   -0.7740   13.2122 H         1 SUB1        0.023
     15 H501        0.6613    2.4615   10.8700 H         1 SUB1        0.023
     16 H502        0.4509    2.4838   12.6538 H         1 SUB1        0.023
     17 H503       -0.4632    1.3022   11.6562 H         1 SUB1        0.023
     18 H531        4.5502    1.8077   14.0029 H         1 SUB1        0.186
     19 H541        5.9137   -0.8232   13.5123 H         1 SUB1        0.060
     20 H551        7.9669    0.1187   14.3795 H         1 SUB1        0.043
     21 H552        7.1360    1.6499   14.8176 H         1 SUB1        0.043
     22 H571        7.1598    3.4191   13.3136 H         1 SUB1        0.053
     23 H581        7.6802    4.3626   11.1280 H         1 SUB1        0.052
     24 H591        7.9205   -0.5071   11.8102 H         1 SUB1        0.053
     25 H601        8.4351    0.4428    9.5978 H         1 SUB1        0.052
     26 H631        7.4384    1.5800    7.9875 H         1 SUB1        0.061
     27 H632        8.6595    2.5435    7.0891 H         1 SUB1        0.061
     28 H641        4.4663   -0.7662   15.5718 H         1 SUB1        0.063
     29 H651        4.9234    1.4523   16.1139 H         1 SUB1        0.210
     30 H661        6.3299   -1.5010   17.1656 H         1 SUB1        0.050
     31 H662        7.4897   -1.0538   15.8688 H         1 SUB1        0.050
     32 H681        5.2147   -3.2222   17.2266 H         1 SUB1        0.048
     33 H682        5.8911   -4.6197   16.3232 H         1 SUB1        0.048
     34 H691        4.4255   -3.9298   14.3596 H         1 SUB1        0.028
     35 H692        3.6405   -2.7389   15.4515 H         1 SUB1        0.028
     36 H701        3.6718   -5.7696   15.8256 H         1 SUB1        0.030
     37 H711        2.0945   -5.2854   17.6749 H         1 SUB1        0.023
     38 H712        2.3254   -3.5255   17.3990 H         1 SUB1        0.023
     39 H713        3.7050   -4.5376   17.9459 H         1 SUB1        0.023
     40 C4          5.1510    4.3240    9.0720 C.3       1 SUB1       -0.036
     41 C5          3.6790    4.2760    9.3940 C.3       1 SUB1        0.037
     42 C6          3.4000    3.6170   10.7330 C.2       1 SUB1        0.178
     43 O1          3.3390    4.3030   11.7430 O.2       1 SUB1       -0.397
     44 C3          5.4690    3.2480    8.0750 C.3       1 SUB1       -0.049
     45 C2          6.7590    3.5080    7.3360 C.3       1 SUB1       -0.025
     46 N1          3.2850    2.2900   10.7580 N.am      1 SUB1       -0.265
     47 C7          2.9890    1.5710   12.0090 C.3       1 SUB1        0.133
     48 C8          1.6300    0.8350   11.9090 C.3       1 SUB1       -0.006
     49 C10         1.4080   -0.0300   13.1370 C.3       1 SUB1       -0.058
     50 C9          0.4900    1.8410   11.7620 C.3       1 SUB1       -0.058
     51 C11         4.0760    0.5840   12.4740 C.2       1 SUB1        0.202
     52 O2          4.2760   -0.4770   11.8620 O.2       1 SUB1       -0.394
     53 N2          4.7620    0.9370   13.5590 N.am      1 SUB1       -0.278
     54 C12         5.8280    0.0830   14.1300 C.3       1 SUB1        0.077
     55 C13         7.1720    0.8230   14.0930 C.3       1 SUB1        0.001
     56 C14         7.5030    1.3940   12.7250 C.ar      1 SUB1       -0.052
     57 C15         7.4430    2.7600   12.5010 C.ar      1 SUB1       -0.069
     58 C16         7.7320    3.2910   11.2830 C.ar      1 SUB1       -0.040
     59 C19         7.8670    0.5650   11.6590 C.ar      1 SUB1       -0.069
     60 C18         8.1580    1.0900   10.4220 C.ar      1 SUB1       -0.040
     61 C17         8.0900    2.4590   10.2510 C.ar      1 SUB1        0.084
     62 O3          8.3870    3.0540    9.0620 O.3       1 SUB1       -0.322
     63 C1          7.8550    2.5870    7.8380 C.3       1 SUB1        0.069
     64 C20         5.4820   -0.3440   15.5620 C.3       1 SUB1        0.097
     65 O4          5.5310    0.7920   16.4260 O.3       1 SUB1       -0.388
     66 C21         6.4660   -1.3970   16.0790 C.3       1 SUB1        0.058
     67 N3          6.2750   -2.7170   15.4530 N.am      1 SUB1       -0.233
     68 C22         5.4210   -3.6300   16.2260 C.3       1 SUB1        0.030
     69 C23         4.1490   -3.7130   15.4020 C.3       1 SUB1       -0.034
     70 C24         3.1700   -4.7920   15.8750 C.3       1 SUB1       -0.045
     71 C26         2.7980   -4.5160   17.3240 C.3       1 SUB1       -0.063
     72 C25         1.9470   -4.8430   14.9680 C.3       1 SUB1       -0.063
     73 S           7.4780   -3.3320   14.5100 S.o2      1 SUB1        0.065
     74 O6          8.2000   -2.2340   13.8740 O.2       1 SUB1       -0.152
     75 O5          6.8820   -4.1890   13.4940 O.2       1 SUB1       -0.152
     76 C27         8.5160   -4.1960   15.4480 C.ar      1 SUB1        0.095
     77 C32         9.5590   -3.5470   16.0840 C.ar      1 SUB1       -0.047
     78 C28         8.3080   -5.5440   15.7010 C.ar      1 SUB1       -0.047
     79 C31        10.3840   -4.2140   16.9740 C.ar      1 SUB1       -0.043
     80 C29         9.1310   -6.2260   16.5980 C.ar      1 SUB1       -0.043
     81 C30        10.1680   -5.5490   17.2290 C.ar      1 SUB1        0.035
     82 N4         10.9710   -6.1750   18.1590 N.pl3     1 SUB1       -0.337
     83 H721        2.2652   -5.0443   13.9344 H         1 SUB1        0.023
     84 H722        1.4202   -3.8782   15.0081 H         1 SUB1        0.023
     85 H723        1.2726   -5.6434   15.3064 H         1 SUB1        0.023
     86 H771        9.7338   -2.4965   15.8819 H         1 SUB1        0.060
     87 H781        7.5031   -6.0695   15.2000 H         1 SUB1        0.060
     88 H791       11.1942   -3.6883   17.4663 H         1 SUB1        0.052
     89 H801        8.9626   -7.2773   16.8015 H         1 SUB1        0.052
     90 H821       11.7339   -5.6541   18.6145 H         1 SUB1        0.172
     91 H822       10.8078   -7.1635   18.3982 H         1 SUB1        0.172
@<TRIPOS>BOND
     1   40    1 1  
     2   40    2 1  
     3   41    3 1  
     4   41    4 1  
     5   44    5 1  
     6   44    6 1  
     7   45    7 1  
     8   45    8 1  
     9   46    9 1  
    10   47   10 1  
    11   48   11 1  
    12   49   12 1  
    13   49   13 1  
    14   49   14 1  
    15   50   15 1  
    16   50   16 1  
    17   50   17 1  
    18   53   18 1  
    19   54   19 1  
    20   55   20 1  
    21   55   21 1  
    22   57   22 1  
    23   58   23 1  
    24   59   24 1  
    25   60   25 1  
    26   63   26 1  
    27   63   27 1  
    28   64   28 1  
    29   65   29 1  
    30   66   30 1  
    31   66   31 1  
    32   68   32 1  
    33   40   44 1  
    34   41   40 1  
    35   42   41 1  
    36   46   42 am 
    37   42   43 2  
    38   47   46 1  
    39   51   47 1  
    40   47   48 1  
    41   48   50 1  
    42   48   49 1  
    43   53   51 am 
    44   51   52 2  
    45   54   53 1  
    46   64   54 1  
    47   54   55 1  
    48   55   56 1  
    49   56   59 ar 
    50   56   57 ar 
    51   57   58 ar 
    52   58   61 ar 
    53   61   62 1  
    54   60   61 ar 
    55   59   60 ar 
    56   62   63 1  
    57   63   45 1  
    58   45   44 1  
    59   66   64 1  
    60   64   65 1  
    61   67   66 1  
    62   67   73 1  
    63   67   68 1  
    64   68   69 1  
    65   69   70 1  
    66   70   72 1  
    67   70   71 1  
    68   73   76 1  
    69   73   75 2  
    70   73   74 2  
    71   76   78 ar 
    72   76   77 ar 
    73   77   79 ar 
    74   79   81 ar 
    75   81   82 1  
    76   81   80 ar 
    77   80   78 ar 
    78   68   33 1  
    79   69   34 1  
    80   69   35 1  
    81   70   36 1  
    82   71   37 1  
    83   71   38 1  
    84   71   39 1  
    85   72   83 1  
    86   72   84 1  
    87   72   85 1  
    88   77   86 1  
    89   78   87 1  
    90   79   88 1  
    91   80   89 1  
    92   82   90 1  
    93   82   91 1  
@<TRIPOS>SUBSTRUCTURE
     1 SUB1        1 GROUP

