1d4l_ligand
  -I-interpret- 

 91 93  0  0  0  0  0  0  0  0999 V2000
    5.4036    5.3067    8.6471 H   0  0  0  0  0
    5.7347    4.1604    9.9899 H   0  0  0  0  0
    3.1635    3.7071    8.6062 H   0  0  0  0  0
    3.2891    5.3043    9.4185 H   0  0  0  0  0
    4.6490    3.1909    7.3440 H   0  0  0  0  0
    5.5541    2.2886    8.6064 H   0  0  0  0  0
    6.6022    3.3318    6.2616 H   0  0  0  0  0
    7.0631    4.5530    7.4957 H   0  0  0  0  0
    3.4019    1.7718    9.9107 H   0  0  0  0  0
    2.8976    2.3352   12.7949 H   0  0  0  0  0
    1.6453    0.1876   11.0199 H   0  0  0  0  0
    0.4402   -0.5459   13.0520 H   0  0  0  0  0
    1.4082    0.6032   14.0365 H   0  0  0  0  0
    2.2147   -0.7740   13.2122 H   0  0  0  0  0
    0.6613    2.4615   10.8700 H   0  0  0  0  0
    0.4509    2.4838   12.6538 H   0  0  0  0  0
   -0.4632    1.3022   11.6562 H   0  0  0  0  0
    4.5502    1.8077   14.0029 H   0  0  0  0  0
    5.9137   -0.8232   13.5123 H   0  0  0  0  0
    7.9669    0.1187   14.3795 H   0  0  0  0  0
    7.1360    1.6499   14.8176 H   0  0  0  0  0
    7.1598    3.4191   13.3136 H   0  0  0  0  0
    7.6802    4.3626   11.1280 H   0  0  0  0  0
    7.9205   -0.5071   11.8102 H   0  0  0  0  0
    8.4351    0.4428    9.5978 H   0  0  0  0  0
    7.4384    1.5800    7.9875 H   0  0  0  0  0
    8.6595    2.5435    7.0891 H   0  0  0  0  0
    4.4663   -0.7662   15.5718 H   0  0  0  0  0
    4.9234    1.4523   16.1139 H   0  0  0  0  0
    6.3299   -1.5010   17.1656 H   0  0  0  0  0
    7.4897   -1.0538   15.8688 H   0  0  0  0  0
    5.2147   -3.2222   17.2266 H   0  0  0  0  0
    5.8911   -4.6197   16.3232 H   0  0  0  0  0
    4.4255   -3.9298   14.3596 H   0  0  0  0  0
    3.6405   -2.7389   15.4515 H   0  0  0  0  0
    3.6718   -5.7696   15.8256 H   0  0  0  0  0
    2.0945   -5.2854   17.6749 H   0  0  0  0  0
    2.3254   -3.5255   17.3990 H   0  0  0  0  0
    3.7050   -4.5376   17.9459 H   0  0  0  0  0
    5.1510    4.3240    9.0720 C   0  0  0  0  0
    3.6790    4.2760    9.3940 C   0  0  0  0  0
    3.4000    3.6170   10.7330 C   0  0  0  0  0
    3.3390    4.3030   11.7430 O   0  0  0  0  0
    5.4690    3.2480    8.0750 C   0  0  0  0  0
    6.7590    3.5080    7.3360 C   0  0  0  0  0
    3.2850    2.2900   10.7580 N   0  0  0  0  0
    2.9890    1.5710   12.0090 C   0  0  0  0  0
    1.6300    0.8350   11.9090 C   0  0  0  0  0
    1.4080   -0.0300   13.1370 C   0  0  0  0  0
    0.4900    1.8410   11.7620 C   0  0  0  0  0
    4.0760    0.5840   12.4740 C   0  0  0  0  0
    4.2760   -0.4770   11.8620 O   0  0  0  0  0
    4.7620    0.9370   13.5590 N   0  0  0  0  0
    5.8280    0.0830   14.1300 C   0  0  0  0  0
    7.1720    0.8230   14.0930 C   0  0  0  0  0
    7.5030    1.3940   12.7250 C   0  0  0  0  0
    7.4430    2.7600   12.5010 C   0  0  0  0  0
    7.7320    3.2910   11.2830 C   0  0  0  0  0
    7.8670    0.5650   11.6590 C   0  0  0  0  0
    8.1580    1.0900   10.4220 C   0  0  0  0  0
    8.0900    2.4590   10.2510 C   0  0  0  0  0
    8.3870    3.0540    9.0620 O   0  0  0  0  0
    7.8550    2.5870    7.8380 C   0  0  0  0  0
    5.4820   -0.3440   15.5620 C   0  0  0  0  0
    5.5310    0.7920   16.4260 O   0  0  0  0  0
    6.4660   -1.3970   16.0790 C   0  0  0  0  0
    6.2750   -2.7170   15.4530 N   0  0  0  0  0
    5.4210   -3.6300   16.2260 C   0  0  0  0  0
    4.1490   -3.7130   15.4020 C   0  0  0  0  0
    3.1700   -4.7920   15.8750 C   0  0  0  0  0
    2.7980   -4.5160   17.3240 C   0  0  0  0  0
    1.9470   -4.8430   14.9680 C   0  0  0  0  0
    7.4780   -3.3320   14.5100 S   0  0  0  0  0
    8.2000   -2.2340   13.8740 O   0  0  0  0  0
    6.8820   -4.1890   13.4940 O   0  0  0  0  0
    8.5160   -4.1960   15.4480 C   0  0  0  0  0
    9.5590   -3.5470   16.0840 C   0  0  0  0  0
    8.3080   -5.5440   15.7010 C   0  0  0  0  0
   10.3840   -4.2140   16.9740 C   0  0  0  0  0
    9.1310   -6.2260   16.5980 C   0  0  0  0  0
   10.1680   -5.5490   17.2290 C   0  0  0  0  0
   10.9710   -6.1750   18.1590 N   0  0  0  0  0
    2.2652   -5.0443   13.9344 H   0  0  0  0  0
    1.4202   -3.8782   15.0081 H   0  0  0  0  0
    1.2726   -5.6434   15.3064 H   0  0  0  0  0
    9.7338   -2.4965   15.8819 H   0  0  0  0  0
    7.5031   -6.0695   15.2000 H   0  0  0  0  0
   11.1942   -3.6883   17.4663 H   0  0  0  0  0
    8.9626   -7.2773   16.8015 H   0  0  0  0  0
   11.7339   -5.6541   18.6145 H   0  0  0  0  0
   10.8078   -7.1635   18.3982 H   0  0  0  0  0
 40  1  1  0  0  0
 40  2  1  0  0  0
 41  3  1  0  0  0
 41  4  1  0  0  0
 44  5  1  0  0  0
 44  6  1  0  0  0
 45  7  1  0  0  0
 45  8  1  0  0  0
 46  9  1  0  0  0
 47 10  1  0  0  0
 48 11  1  0  0  0
 49 12  1  0  0  0
 49 13  1  0  0  0
 49 14  1  0  0  0
 50 15  1  0  0  0
 50 16  1  0  0  0
 50 17  1  0  0  0
 53 18  1  0  0  0
 54 19  1  0  0  0
 55 20  1  0  0  0
 55 21  1  0  0  0
 57 22  1  0  0  0
 58 23  1  0  0  0
 59 24  1  0  0  0
 60 25  1  0  0  0
 63 26  1  0  0  0
 63 27  1  0  0  0
 64 28  1  0  0  0
 65 29  1  0  0  0
 66 30  1  0  0  0
 66 31  1  0  0  0
 68 32  1  0  0  0
 40 44  1  0  0  0
 41 40  1  0  0  0
 42 41  1  0  0  0
 46 42  1  0  0  0
 42 43  2  0  0  0
 47 46  1  0  0  0
 51 47  1  0  0  0
 47 48  1  0  0  0
 48 50  1  0  0  0
 48 49  1  0  0  0
 53 51  1  0  0  0
 51 52  2  0  0  0
 54 53  1  0  0  0
 64 54  1  0  0  0
 54 55  1  0  0  0
 55 56  1  0  0  0
 56 59  4  0  0  0
 56 57  4  0  0  0
 57 58  4  0  0  0
 58 61  4  0  0  0
 61 62  1  0  0  0
 60 61  4  0  0  0
 59 60  4  0  0  0
 62 63  1  0  0  0
 63 45  1  0  0  0
 45 44  1  0  0  0
 66 64  1  0  0  0
 64 65  1  0  0  0
 67 66  1  0  0  0
 67 73  1  0  0  0
 67 68  1  0  0  0
 68 69  1  0  0  0
 69 70  1  0  0  0
 70 72  1  0  0  0
 70 71  1  0  0  0
 73 76  1  0  0  0
 73 75  2  0  0  0
 73 74  2  0  0  0
 76 78  4  0  0  0
 76 77  4  0  0  0
 77 79  4  0  0  0
 79 81  4  0  0  0
 81 82  1  0  0  0
 81 80  4  0  0  0
 80 78  4  0  0  0
 68 33  1  0  0  0
 69 34  1  0  0  0
 69 35  1  0  0  0
 70 36  1  0  0  0
 71 37  1  0  0  0
 71 38  1  0  0  0
 71 39  1  0  0  0
 72 83  1  0  0  0
 72 84  1  0  0  0
 72 85  1  0  0  0
 77 86  1  0  0  0
 78 87  1  0  0  0
 79 88  1  0  0  0
 80 89  1  0  0  0
 82 90  1  0  0  0
 82 91  1  0  0  0
M  END
$$$$
