2adu_ligand
  -I-interpret- 

 21 22  0  0  0  0  0  0  0  0999 V2000
   19.6180   30.7460   16.2430 C   0  0  0  0  0
   19.8350   29.2910   16.2940 C   0  0  0  0  0
   18.2940   31.2890   16.3020 C   0  0  0  0  0
   20.7140   31.6560   16.0970 C   0  0  0  0  0
   20.9750   28.4970   16.1830 C   0  0  0  0  0
   18.0690   32.7080   16.2610 C   0  0  0  0  0
   20.4880   33.0660   16.0570 C   0  0  0  0  0
   19.1640   33.5860   16.1210 C   0  0  0  0  0
   16.6720   33.2570   16.3340 C   0  0  0  0  0
   18.8350   28.3540   16.5010 N   0  0  0  0  0
   20.6520   27.1750   16.3120 N   0  0  0  0  0
   19.3320   27.0920   16.5070 N   0  0  0  0  0
   17.4464   30.6177   16.3790 H   0  0  0  0  0
   21.7243   31.2715   16.0161 H   0  0  0  0  0
   21.9821   28.8766   16.0168 H   0  0  0  0  0
   21.3298   33.7443   15.9774 H   0  0  0  0  0
   18.9977   34.6556   16.0622 H   0  0  0  0  0
   15.9573   32.4277   16.4416 H   0  0  0  0  0
   16.4491   33.8160   15.4132 H   0  0  0  0  0
   16.5869   33.9291   17.2006 H   0  0  0  0  0
   21.3092   26.3832   16.2669 H   0  0  0  0  0
  1  2  1  0  0  0
  1  3  4  0  0  0
  1  4  4  0  0  0
  2  5  2  0  0  0
  2 10  1  0  0  0
  3  6  4  0  0  0
  4  7  4  0  0  0
  5 11  1  0  0  0
  6  8  4  0  0  0
  6  9  1  0  0  0
  7  8  4  0  0  0
 10 12  2  0  0  0
 11 12  1  0  0  0
  3 13  1  0  0  0
  4 14  1  0  0  0
  5 15  1  0  0  0
  7 16  1  0  0  0
  8 17  1  0  0  0
  9 18  1  0  0  0
  9 19  1  0  0  0
  9 20  1  0  0  0
 11 21  1  0  0  0
M  END
$$$$
