### 
### Created by X-TOOL on Mon Oct 24 23:18:16 2005
### 

@<TRIPOS>MOLECULE
2adu_ligand
   21    22     1     0     0
SMALL
GAST_HUCK


@<TRIPOS>ATOM
      1 C1         19.6180   30.7460   16.2430 C.ar      1 SUB1       -0.027
      2 C2         19.8350   29.2910   16.2940 C.2       1 SUB1        0.068
      3 C3         18.2940   31.2890   16.3020 C.ar      1 SUB1       -0.059
      4 C4         20.7140   31.6560   16.0970 C.ar      1 SUB1       -0.067
      5 C5         20.9750   28.4970   16.1830 C.2       1 SUB1        0.085
      6 C7         18.0690   32.7080   16.2610 C.ar      1 SUB1       -0.051
      7 C8         20.4880   33.0660   16.0570 C.ar      1 SUB1       -0.073
      8 C11        19.1640   33.5860   16.1210 C.ar      1 SUB1       -0.065
      9 C12        16.6720   33.2570   16.3340 C.3       1 SUB1       -0.032
     10 N6         18.8350   28.3540   16.5010 N.2       1 SUB1       -0.217
     11 N9         20.6520   27.1750   16.3120 N.pl3     1 SUB1       -0.181
     12 N10        19.3320   27.0920   16.5070 N.2       1 SUB1       -0.093
     13 H31        17.4464   30.6177   16.3790 H         1 SUB1        0.052
     14 H41        21.7243   31.2715   16.0161 H         1 SUB1        0.052
     15 H51        21.9821   28.8766   16.0168 H         1 SUB1        0.108
     16 H71        21.3298   33.7443   15.9774 H         1 SUB1        0.059
     17 H81        18.9977   34.6556   16.0622 H         1 SUB1        0.052
     18 H91        15.9573   32.4277   16.4416 H         1 SUB1        0.039
     19 H92        16.4491   33.8160   15.4132 H         1 SUB1        0.039
     20 H93        16.5869   33.9291   17.2006 H         1 SUB1        0.039
     21 H111       21.3092   26.3832   16.2669 H         1 SUB1        0.271
@<TRIPOS>BOND
     1    1    2 1  
     2    1    3 ar 
     3    1    4 ar 
     4    2    5 2  
     5    2   10 1  
     6    3    6 ar 
     7    4    7 ar 
     8    5   11 1  
     9    6    8 ar 
    10    6    9 1  
    11    7    8 ar 
    12   10   12 2  
    13   11   12 1  
    14    3   13 1  
    15    4   14 1  
    16    5   15 1  
    17    7   16 1  
    18    8   17 1  
    19    9   18 1  
    20    9   19 1  
    21    9   20 1  
    22   11   21 1  
@<TRIPOS>SUBSTRUCTURE
     1 SUB1        1 GROUP

