### 
### Created by X-TOOL on Mon Oct 24 22:55:23 2005
### 

@<TRIPOS>MOLECULE
1g48_ligand
   34    35     1     0     0
SMALL
GAST_HUCK


@<TRIPOS>ATOM
      1 H31        -2.7515    3.6386   14.5757 H         1 SUB1        0.067
      2 H41        -3.4924    1.6370   15.8568 H         1 SUB1        0.065
      3 C01        -3.7940    3.5380   14.8550 C.ar      1 SUB1       -0.040
      4 C02        -4.2120    2.3990   15.5800 C.ar      1 SUB1       -0.030
      5 C03        -5.5880    2.2540   15.9480 C.ar      1 SUB1        0.112
      6 C04        -6.4670    3.2680   15.5780 C.ar      1 SUB1       -0.030
      7 C05        -6.0260    4.3810   14.8680 C.ar      1 SUB1       -0.040
      8 C06        -4.7020    4.5370   14.4920 C.ar      1 SUB1        0.050
      9 C07        -4.2770    5.7680   13.6970 C.2       1 SUB1        0.207
     10 O08        -5.1880    6.5530   13.4440 O.2       1 SUB1       -0.384
     11 N09        -2.9710    6.0990   13.2190 N.am      1 SUB1       -0.276
     12 C10        -2.7940    7.5340   12.9470 C.3       1 SUB1        0.066
     13 S11        -6.0930    0.7770   16.8530 S.o2      1 SUB1        0.068
     14 NP2        -5.6120   -0.6010   16.0100 N.am      1 SUB1       -0.261
     15 O13        -7.5340    0.9560   16.9790 O.2       1 SUB1       -0.150
     16 O14        -5.4420    0.9540   18.1540 O.2       1 SUB1       -0.150
     17 C15        -1.6920    8.2620   13.4360 C.ar      1 SUB1        0.046
     18 C16        -0.4240    8.1310   12.7780 C.ar      1 SUB1        0.133
     19 C17         0.6970    8.8860   13.2940 C.ar      1 SUB1       -0.039
     20 C18         0.5280    9.7520   14.4460 C.ar      1 SUB1       -0.072
     21 C19        -0.7560    9.8670   15.0900 C.ar      1 SUB1       -0.039
     22 C20        -1.8630    9.1280   14.5920 C.ar      1 SUB1        0.133
     23 F21        -0.2750    7.3300   11.7140 F         1 SUB1       -0.190
     24 F22        -3.0470    9.2520   15.2070 F         1 SUB1       -0.190
     25 H61        -7.5140    3.1894   15.8477 H         1 SUB1        0.065
     26 H71        -6.7415    5.1502   14.6008 H         1 SUB1        0.067
     27 H111       -2.2483    5.4214   13.0828 H         1 SUB1        0.187
     28 H121       -3.6909    8.0337   13.3417 H         1 SUB1        0.067
     29 H122       -2.7683    7.6376   11.8522 H         1 SUB1        0.067
     30 H141       -5.8174   -1.5157   16.3803 H         1 SUB1        0.163
     31 H191        1.6675    8.8044   12.8180 H         1 SUB1        0.055
     32 H201        1.3729   10.3159   14.8245 H         1 SUB1        0.054
     33 H211       -0.8770   10.5146   15.9508 H         1 SUB1        0.055
     34 H142       -5.1228   -0.5111   15.1425 H         1 SUB1        0.163
@<TRIPOS>BOND
     1    3    8 ar 
     2    3    4 ar 
     3    4    5 ar 
     4    5   13 1  
     5    5    6 ar 
     6    6    7 ar 
     7    7    8 ar 
     8    8    9 1  
     9    9   11 am 
    10    9   10 2  
    11   11   12 1  
    12   12   17 1  
    13   17   22 ar 
    14   17   18 ar 
    15   18   19 ar 
    16   19   20 ar 
    17   20   21 ar 
    18   21   22 ar 
    19   13   16 2  
    20   13   15 2  
    21   13   14 1  
    22   18   23 1  
    23   22   24 1  
    24    3    1 1  
    25    4    2 1  
    26    6   25 1  
    27    7   26 1  
    28   11   27 1  
    29   12   28 1  
    30   12   29 1  
    31   14   30 1  
    32   19   31 1  
    33   20   32 1  
    34   21   33 1  
    35   14   34 1  
@<TRIPOS>SUBSTRUCTURE
     1 SUB1        1 GROUP

