1g48_ligand
  -I-interpret- 

 34 35  0  0  0  0  0  0  0  0999 V2000
   -2.7515    3.6386   14.5757 H   0  0  0  0  0
   -3.4924    1.6370   15.8568 H   0  0  0  0  0
   -3.7940    3.5380   14.8550 C   0  0  0  0  0
   -4.2120    2.3990   15.5800 C   0  0  0  0  0
   -5.5880    2.2540   15.9480 C   0  0  0  0  0
   -6.4670    3.2680   15.5780 C   0  0  0  0  0
   -6.0260    4.3810   14.8680 C   0  0  0  0  0
   -4.7020    4.5370   14.4920 C   0  0  0  0  0
   -4.2770    5.7680   13.6970 C   0  0  0  0  0
   -5.1880    6.5530   13.4440 O   0  0  0  0  0
   -2.9710    6.0990   13.2190 N   0  0  0  0  0
   -2.7940    7.5340   12.9470 C   0  0  0  0  0
   -6.0930    0.7770   16.8530 S   0  0  0  0  0
   -5.6120   -0.6010   16.0100 N   0  0  0  0  0
   -7.5340    0.9560   16.9790 O   0  0  0  0  0
   -5.4420    0.9540   18.1540 O   0  0  0  0  0
   -1.6920    8.2620   13.4360 C   0  0  0  0  0
   -0.4240    8.1310   12.7780 C   0  0  0  0  0
    0.6970    8.8860   13.2940 C   0  0  0  0  0
    0.5280    9.7520   14.4460 C   0  0  0  0  0
   -0.7560    9.8670   15.0900 C   0  0  0  0  0
   -1.8630    9.1280   14.5920 C   0  0  0  0  0
   -0.2750    7.3300   11.7140 F   0  0  0  0  0
   -3.0470    9.2520   15.2070 F   0  0  0  0  0
   -7.5140    3.1894   15.8477 H   0  0  0  0  0
   -6.7415    5.1502   14.6008 H   0  0  0  0  0
   -2.2483    5.4214   13.0828 H   0  0  0  0  0
   -3.6909    8.0337   13.3417 H   0  0  0  0  0
   -2.7683    7.6376   11.8522 H   0  0  0  0  0
   -5.8174   -1.5157   16.3803 H   0  0  0  0  0
    1.6675    8.8044   12.8180 H   0  0  0  0  0
    1.3729   10.3159   14.8245 H   0  0  0  0  0
   -0.8770   10.5146   15.9508 H   0  0  0  0  0
   -5.1228   -0.5111   15.1425 H   0  0  0  0  0
  3  8  4  0  0  0
  3  4  4  0  0  0
  4  5  4  0  0  0
  5 13  1  0  0  0
  5  6  4  0  0  0
  6  7  4  0  0  0
  7  8  4  0  0  0
  8  9  1  0  0  0
  9 11  1  0  0  0
  9 10  2  0  0  0
 11 12  1  0  0  0
 12 17  1  0  0  0
 17 22  4  0  0  0
 17 18  4  0  0  0
 18 19  4  0  0  0
 19 20  4  0  0  0
 20 21  4  0  0  0
 21 22  4  0  0  0
 13 16  2  0  0  0
 13 15  2  0  0  0
 13 14  1  0  0  0
 18 23  1  0  0  0
 22 24  1  0  0  0
  3  1  1  0  0  0
  4  2  1  0  0  0
  6 25  1  0  0  0
  7 26  1  0  0  0
 11 27  1  0  0  0
 12 28  1  0  0  0
 12 29  1  0  0  0
 14 30  1  0  0  0
 19 31  1  0  0  0
 20 32  1  0  0  0
 21 33  1  0  0  0
 14 34  1  0  0  0
M  END
$$$$
