### 
### Created by X-TOOL on Sun Jun  3 11:24:37 2007
### 

@<TRIPOS>MOLECULE
2g00_ligand
   66    70     1     0     0
SMALL
GAST_HUCK


@<TRIPOS>ATOM
      1 C1         17.9420    8.0900   52.8610 C.ar      1 SUB1        0.050
      2 C2         17.3350    7.3230   51.7740 C.2       1 SUB1        0.202
      3 C3         17.7890    9.8600   54.5940 C.ar      1 SUB1       -0.056
      4 C7         23.6330    8.6040   54.0410 C.2       1 SUB1        0.132
      5 C8         23.3750    7.6900   55.0820 C.2       1 SUB1        0.025
      6 C9         21.9980    7.6710   55.3320 C.2       1 SUB1        0.201
      7 C10        25.0340    8.9760   53.5740 C.3       1 SUB1        0.384
      8 C11        21.7100    2.7740   62.7150 C.3       1 SUB1        0.002
      9 C12        23.6980    6.4190   57.1880 C.3       1 SUB1        0.064
     10 C13        21.4300    6.8990   56.3850 C.2       1 SUB1        0.261
     11 C14        21.6300    5.2120   58.0030 C.ar      1 SUB1        0.070
     12 C15        20.8930    5.6660   59.2160 C.ar      1 SUB1       -0.040
     13 C16        20.3080    4.6610   60.1010 C.ar      1 SUB1       -0.068
     14 C19        21.6900    3.7720   57.6530 C.ar      1 SUB1       -0.040
     15 C20        23.0220    1.5410   64.5820 C.3       1 SUB1       -0.042
     16 C21        18.7440    1.3640   60.4190 C.ar      1 SUB1       -0.064
     17 C22        18.1150    0.4670   61.3980 C.ar      1 SUB1       -0.070
     18 C24        24.2800    6.7150   55.8140 C.3       1 SUB1        0.008
     19 C27        19.9000    2.1880   60.8220 C.ar      1 SUB1       -0.020
     20 F          25.5040    7.9250   52.9820 F         1 SUB1       -0.222
     21 F1         25.8180    9.3320   54.5800 F         1 SUB1       -0.222
     22 F2         24.9400    9.9730   52.7200 F         1 SUB1       -0.222
     23 O1         20.2190    6.8920   56.6430 O.2       1 SUB1       -0.377
     24 N2         21.4130    8.5220   54.4170 N.pl3     1 SUB1       -0.116
     25 N3         22.4250    9.0850   53.6560 N.2       1 SUB1       -0.136
     26 N4         22.2510    6.1330   57.1530 N.am      1 SUB1       -0.216
     27 C          17.1290    9.0610   53.5800 C.ar      1 SUB1       -0.045
     28 C4         19.2210    9.6680   54.8670 C.ar      1 SUB1       -0.015
     29 C5         20.0420    8.6850   54.1440 C.ar      1 SUB1        0.135
     30 C6         19.3810    7.8760   53.1190 C.ar      1 SUB1        0.001
     31 C17        20.4420    3.2030   59.8060 C.ar      1 SUB1       -0.035
     32 C18        21.1010    2.7730   58.5430 C.ar      1 SUB1       -0.068
     33 C25        20.4010    2.0290   62.2270 C.ar      1 SUB1        0.007
     34 N7         22.2770    2.7360   64.1100 N.4       1 SUB1        0.243
     35 C23        23.1330    3.8910   64.4550 C.3       1 SUB1       -0.042
     36 O2         15.9270    7.2360   51.3860 O.2       1 SUB1       -0.385
     37 N1         18.1830    6.6630   51.0850 N.am      1 SUB1       -0.300
     38 C28        18.5790    0.3260   62.7980 C.ar      1 SUB1       -0.070
     39 C29        19.7380    1.1350   63.1890 C.ar      1 SUB1       -0.056
     40 H          17.2229   10.6039   55.1546 H         1 SUB1        0.062
     41 H          21.4249    3.8213   62.6151 H         1 SUB1        0.098
     42 H          22.4860    2.2671   62.1414 H         1 SUB1        0.098
     43 H          23.8465    7.3028   57.8084 H         1 SUB1        0.061
     44 H          24.2015    5.5344   57.5779 H         1 SUB1        0.061
     45 H          20.7921    6.7282   59.4390 H         1 SUB1        0.051
     46 H          19.7652    4.9805   60.9906 H         1 SUB1        0.058
     47 H          22.1750    3.4575   56.7289 H         1 SUB1        0.051
     48 H          22.3703    0.6683   64.5403 H         1 SUB1        0.078
     49 H          23.8895    1.3791   63.9422 H         1 SUB1        0.078
     50 H          23.3510    1.7017   65.6087 H         1 SUB1        0.078
     51 H          18.3590    1.4205   59.4008 H         1 SUB1        0.058
     52 H          17.2598   -0.1275   61.0766 H         1 SUB1        0.056
     53 H          25.2719    7.1529   55.9256 H         1 SUB1        0.045
     54 H          24.3548    5.7893   55.2434 H         1 SUB1        0.045
     55 H          16.0674    9.1822   53.3646 H         1 SUB1        0.064
     56 H          19.6932   10.2789   55.6364 H         1 SUB1        0.065
     57 H          19.9404    7.1289   52.5560 H         1 SUB1        0.067
     58 H          21.1444    1.7156   58.2821 H         1 SUB1        0.058
     59 H          21.3767    2.7336   64.5894 H         1 SUB1        0.204
     60 H          23.9791    3.9323   63.7690 H         1 SUB1        0.078
     61 H          22.5520    4.8096   64.3730 H         1 SUB1        0.078
     62 H          23.4968    3.7797   65.4764 H         1 SUB1        0.078
     63 H          17.8699    6.0998   50.2943 H         1 SUB1        0.181
     64 H          19.1737    6.6988   51.3251 H         1 SUB1        0.181
     65 H          18.0845   -0.3444   63.5010 H         1 SUB1        0.058
     66 H          20.1147    1.0728   64.2100 H         1 SUB1        0.055
@<TRIPOS>BOND
     1    1    2 1  
     2   27    1 ar 
     3    1   30 ar 
     4    2   36 2  
     5    2   37 am 
     6    3   27 ar 
     7   28    3 ar 
     8    4    5 1  
     9    4    7 1  
    10   25    4 2  
    11    6    5 2  
    12    5   18 1  
    13    6   10 1  
    14   24    6 1  
    15    7   20 1  
    16    7   21 1  
    17    7   22 1  
    18   33    8 1  
    19    8   34 1  
    20   18    9 1  
    21   26    9 1  
    22   10   23 2  
    23   10   26 am 
    24   11   12 ar 
    25   11   14 ar 
    26   26   11 1  
    27   12   13 ar 
    28   13   31 ar 
    29   14   32 ar 
    30   34   15 1  
    31   16   17 ar 
    32   19   16 ar 
    33   17   38 ar 
    34   31   19 1  
    35   19   33 ar 
    36   24   25 1  
    37   29   24 1  
    38   28   29 ar 
    39   29   30 ar 
    40   31   32 ar 
    41   33   39 ar 
    42   34   35 1  
    43   38   39 ar 
    44    3   40 1  
    45    8   41 1  
    46    8   42 1  
    47    9   43 1  
    48    9   44 1  
    49   12   45 1  
    50   13   46 1  
    51   14   47 1  
    52   15   48 1  
    53   15   49 1  
    54   15   50 1  
    55   16   51 1  
    56   17   52 1  
    57   18   53 1  
    58   18   54 1  
    59   27   55 1  
    60   28   56 1  
    61   30   57 1  
    62   32   58 1  
    63   34   59 1  
    64   35   60 1  
    65   35   61 1  
    66   35   62 1  
    67   37   63 1  
    68   37   64 1  
    69   38   65 1  
    70   39   66 1  
@<TRIPOS>SUBSTRUCTURE
     1 SUB1        1 GROUP

