### 
### Created by X-TOOL on Mon Oct 24 22:00:47 2005
### 

@<TRIPOS>MOLECULE
1o0n_ligand
   32    33     1     0     0
SMALL
GAST_HUCK


@<TRIPOS>ATOM
      1 N1         36.4670   -2.1580   11.9650 N.am      1 SUB1       -0.159
      2 C2         35.3090   -2.2720   11.2030 C.2       1 SUB1        0.333
      3 N3         34.6430   -3.4670   11.3380 N.am      1 SUB1       -0.186
      4 C4         35.0020   -4.5360   12.1370 C.2       1 SUB1        0.182
      5 C5         36.2080   -4.3460   12.8810 C.2       1 SUB1        0.006
      6 C6         36.8850   -3.1960   12.7710 C.2       1 SUB1        0.059
      7 O2         34.8970   -1.3810   10.4690 O.2       1 SUB1       -0.382
      8 O4         34.2850   -5.5360   12.1690 O.2       1 SUB1       -0.412
      9 P          38.4720    3.3630   13.0140 P.3       1 SUB1        0.206
     10 O1P        37.4380    3.5170   14.1220 O.co2     1 SUB1       -0.535
     11 O2P        38.3210    4.3830   11.8990 O.co2     1 SUB1       -0.535
     12 O3P        39.8960    3.2260   13.5350 O.co2     1 SUB1       -0.535
     13 O5'        39.5890   -1.7090   14.3630 O.3       1 SUB1       -0.392
     14 C5'        40.3340   -0.9420   13.3980 C.3       1 SUB1        0.073
     15 C4'        39.3940   -0.2170   12.4600 C.3       1 SUB1        0.118
     16 O4'        38.5950   -1.1950   11.7380 O.3       1 SUB1       -0.336
     17 C3'        38.4090    0.7440   13.1230 C.3       1 SUB1        0.136
     18 O3'        38.2390    1.9200   12.3410 O.3       1 SUB1       -0.314
     19 C2'        37.1140   -0.0620   13.1650 C.3       1 SUB1        0.143
     20 O2'        35.9550    0.7430   13.1160 O.3       1 SUB1       -0.383
     21 C1'        37.2220   -0.8950   11.8900 C.3       1 SUB1        0.206
     22 H31        33.8075   -3.5745   10.7992 H         1 SUB1        0.226
     23 H51        36.5752   -5.1349   13.5358 H         1 SUB1        0.026
     24 H61        37.8044   -3.0753   13.3421 H         1 SUB1        0.118
     25 H131       39.0499   -2.3471   13.9106 H         1 SUB1        0.209
     26 H141       40.9546   -0.1977   13.9184 H         1 SUB1        0.058
     27 H142       40.9721   -1.6144   12.8059 H         1 SUB1        0.058
     28 H151       40.0003    0.3677   11.7526 H         1 SUB1        0.065
     29 H171       38.7296    1.0109   14.1408 H         1 SUB1        0.070
     30 H191       37.0774   -0.7097   14.0533 H         1 SUB1        0.068
     31 H201       35.9541    1.2461   12.3102 H         1 SUB1        0.210
     32 H211       36.8551   -0.2979   11.0422 H         1 SUB1        0.100
@<TRIPOS>BOND
     1    1    2 am 
     2    1    6 am 
     3   21    1 1  
     4    2    3 am 
     5    2    7 2  
     6    3    4 am 
     7    5    4 1  
     8    4    8 2  
     9    6    5 2  
    10    9   10 2  
    11    9   11 2  
    12    9   12 2  
    13   18    9 1  
    14   14   13 1  
    15   15   14 1  
    16   15   16 1  
    17   17   15 1  
    18   16   21 1  
    19   17   18 1  
    20   17   19 1  
    21   19   20 1  
    22   19   21 1  
    23    3   22 1  
    24    5   23 1  
    25    6   24 1  
    26   13   25 1  
    27   14   26 1  
    28   14   27 1  
    29   15   28 1  
    30   17   29 1  
    31   19   30 1  
    32   20   31 1  
    33   21   32 1  
@<TRIPOS>SUBSTRUCTURE
     1 SUB1        1 GROUP

