2gh7_ligand
  -I-interpret- 

 31 32  0  0  0  0  0  0  0  0999 V2000
   32.7730   18.1450   14.0450 C   0  0  0  0  0
   33.7030   17.4480   13.5110 O   0  0  0  0  0
   32.7260   19.4420   13.8670 O   0  5  0  0  0
   31.7670   17.4900   14.9420 C   0  0  0  0  0
   31.3330   16.1390   14.5830 C   0  0  0  0  0
   30.5220   16.1550   13.2690 C   0  0  0  0  0
   30.1950   14.7530   12.7960 C   0  0  0  0  0
   29.1750   14.6230   11.7500 C   0  0  0  0  0
   27.6110   15.2170   11.7390 S   0  0  0  0  0
   27.1720   14.6510   10.1750 C   0  0  0  0  0
   27.8700   13.2950   10.0980 C   0  0  0  0  0
   26.9820   12.2340   10.5670 N   0  0  0  0  0
   27.5330   11.6360   11.6670 C   0  0  0  0  0
   26.9870   10.6840   12.2560 O   0  0  0  0  0
   28.7110   12.1630   11.9770 N   0  0  0  0  0
   29.0700   13.2600   11.0340 C   0  0  0  0  0
   30.8736   18.1122   14.8900 H   0  0  0  0  0
   32.2519   17.3974   15.9138 H   0  0  0  0  0
   30.7015   15.7488   15.3812 H   0  0  0  0  0
   32.2137   15.5118   14.4450 H   0  0  0  0  0
   31.1206   16.6458   12.5016 H   0  0  0  0  0
   29.5861   16.6840   13.4491 H   0  0  0  0  0
   29.7966   14.2311   13.6661 H   0  0  0  0  0
   31.1161   14.3630   12.3630 H   0  0  0  0  0
   29.7443   15.4368   11.3009 H   0  0  0  0  0
   27.4745   15.3299    9.3777 H   0  0  0  0  0
   26.0931   14.5814   10.0363 H   0  0  0  0  0
   28.1617   13.1487    9.0580 H   0  0  0  0  0
   26.0909   11.9791   10.1411 H   0  0  0  0  0
   29.2933   11.8578   12.7569 H   0  0  0  0  0
   30.0324   13.0895   10.5516 H   0  0  0  0  0
  1  2  2  0  0  0
  1  3  1  0  0  0
  1  4  1  0  0  0
  4  5  1  0  0  0
  5  6  1  0  0  0
  6  7  1  0  0  0
  7  8  1  0  0  0
  8  9  1  0  0  0
  8 16  1  0  0  0
  9 10  1  0  0  0
 10 11  1  0  0  0
 11 12  1  0  0  0
 11 16  1  0  0  0
 12 13  1  0  0  0
 13 14  2  0  0  0
 13 15  1  0  0  0
 15 16  1  0  0  0
  4 17  1  0  0  0
  4 18  1  0  0  0
  5 19  1  0  0  0
  5 20  1  0  0  0
  6 21  1  0  0  0
  6 22  1  0  0  0
  7 23  1  0  0  0
  7 24  1  0  0  0
  8 25  1  0  0  0
 10 26  1  0  0  0
 10 27  1  0  0  0
 11 28  1  0  0  0
 12 29  1  0  0  0
 15 30  1  0  0  0
 16 31  1  0  0  0
M  END
$$$$
