### 
### Created by X-TOOL on Sun Jun  3 12:36:03 2007
### 

@<TRIPOS>MOLECULE
2gh7_ligand
   31    32     1     0     0
SMALL
GAST_HUCK


@<TRIPOS>ATOM
      1 C11        32.7730   18.1450   14.0450 C.2       1 SUB1        0.345
      2 O11        33.7030   17.4480   13.5110 O.2       1 SUB1       -0.262
      3 O12        32.7260   19.4420   13.8670 O.2       1 SUB1       -0.262
      4 C10        31.7670   17.4900   14.9420 C.3       1 SUB1        0.060
      5 C9         31.3330   16.1390   14.5830 C.3       1 SUB1       -0.036
      6 C8         30.5220   16.1550   13.2690 C.3       1 SUB1       -0.050
      7 C7         30.1950   14.7530   12.7960 C.3       1 SUB1       -0.039
      8 C2         29.1750   14.6230   11.7500 C.3       1 SUB1        0.030
      9 S1         27.6110   15.2170   11.7390 S.3       1 SUB1       -0.153
     10 C6         27.1720   14.6510   10.1750 C.3       1 SUB1        0.019
     11 C5         27.8700   13.2950   10.0980 C.3       1 SUB1        0.075
     12 N1         26.9820   12.2340   10.5670 N.am      1 SUB1       -0.267
     13 C3         27.5330   11.6360   11.6670 C.2       1 SUB1        0.258
     14 O3         26.9870   10.6840   12.2560 O.2       1 SUB1       -0.401
     15 N2         28.7110   12.1630   11.9770 N.am      1 SUB1       -0.267
     16 C4         29.0700   13.2600   11.0340 C.3       1 SUB1        0.078
     17 H          30.8736   18.1122   14.8900 H         1 SUB1        0.048
     18 H          32.2519   17.3974   15.9138 H         1 SUB1        0.048
     19 H          30.7015   15.7488   15.3812 H         1 SUB1        0.028
     20 H          32.2137   15.5118   14.4450 H         1 SUB1        0.028
     21 H          31.1206   16.6458   12.5016 H         1 SUB1        0.027
     22 H          29.5861   16.6840   13.4491 H         1 SUB1        0.027
     23 H          29.7966   14.2311   13.6661 H         1 SUB1        0.028
     24 H          31.1161   14.3630   12.3630 H         1 SUB1        0.028
     25 H          29.7443   15.4368   11.3009 H         1 SUB1        0.043
     26 H          27.4745   15.3299    9.3777 H         1 SUB1        0.040
     27 H          26.0931   14.5814   10.0363 H         1 SUB1        0.040
     28 H          28.1617   13.1487    9.0580 H         1 SUB1        0.058
     29 H          26.0909   11.9791   10.1411 H         1 SUB1        0.185
     30 H          29.2933   11.8578   12.7569 H         1 SUB1        0.185
     31 H          30.0324   13.0895   10.5516 H         1 SUB1        0.059
@<TRIPOS>BOND
     1    1    2 2  
     2    1    3 2  
     3    1    4 1  
     4    4    5 1  
     5    5    6 1  
     6    6    7 1  
     7    7    8 1  
     8    8    9 1  
     9    8   16 1  
    10    9   10 1  
    11   10   11 1  
    12   11   12 1  
    13   11   16 1  
    14   12   13 am 
    15   13   14 2  
    16   13   15 am 
    17   15   16 1  
    18    4   17 1  
    19    4   18 1  
    20    5   19 1  
    21    5   20 1  
    22    6   21 1  
    23    6   22 1  
    24    7   23 1  
    25    7   24 1  
    26    8   25 1  
    27   10   26 1  
    28   10   27 1  
    29   11   28 1  
    30   12   29 1  
    31   15   30 1  
    32   16   31 1  
@<TRIPOS>SUBSTRUCTURE
     1 SUB1        1 GROUP

