### 
### Created by X-TOOL on Mon Oct 24 22:41:51 2005
### 

@<TRIPOS>MOLECULE
1g3b_ligand
   30    30     1     0     0
SMALL
GAST_HUCK


@<TRIPOS>ATOM
      1 H81        42.7589   -4.4768   26.8208 H         1 SUB1        0.071
      2 H111       45.0716   -0.2314   27.7459 H         1 SUB1        0.056
      3 H121       45.4092   -1.3619   25.6083 H         1 SUB1        0.070
      4 H131       41.6887   -4.4650   28.9274 H         1 SUB1        0.108
      5 H151       42.7043   -0.7366   29.7833 H         1 SUB1        0.253
      6 H161       44.9687   -3.4704   22.8886 H         1 SUB1        0.192
      7 C1         44.1090   -2.9930   26.0760 C.ar      1 SUB1        0.183
      8 C2         43.2660   -3.5420   27.0310 C.ar      1 SUB1        0.005
      9 C3         43.0600   -2.9090   28.2600 C.ar      1 SUB1        0.048
     10 C4         43.7190   -1.7020   28.5170 C.ar      1 SUB1        0.112
     11 C5         44.5590   -1.1660   27.5490 C.ar      1 SUB1       -0.019
     12 C6         44.7500   -1.8000   26.3490 C.ar      1 SUB1       -0.008
     13 C7         42.1620   -3.5280   29.2170 C.2       1 SUB1        0.017
     14 C8         44.3430   -3.6710   24.8260 C.cat     1 SUB1        0.312
     15 O1         43.6110   -0.9890   29.6540 O.3       1 SUB1       -0.324
     16 N1         44.8000   -2.9900   23.7840 N.pl3     1 SUB1       -0.201
     17 N2         44.1020   -4.9700   24.7200 N.pl3     1 SUB1       -0.201
     18 N          41.8780   -3.0520   30.3930 N.2       1 SUB1       -0.324
     19 CA         40.9480   -3.8090   31.2190 C.3       1 SUB1        0.052
     20 CB         41.6450   -5.0310   31.8120 C.3       1 SUB1       -0.040
     21 C          40.3980   -2.9300   32.3310 C.2       1 SUB1        0.042
     22 O          39.3270   -3.2390   32.8580 O.co2     1 SUB1       -0.565
     23 OXT        41.1050   -1.9020   32.6520 O.co2     1 SUB1       -0.565
     24 H162       44.9863   -1.9806   23.8700 H         1 SUB1        0.192
     25 H171       43.7471   -5.4958   25.5314 H         1 SUB1        0.192
     26 H172       44.2697   -5.4536   23.8262 H         1 SUB1        0.192
     27 H191       40.1120   -4.1487   30.5900 H         1 SUB1        0.064
     28 H201       40.9327   -5.5939   32.4332 H         1 SUB1        0.028
     29 H202       42.4934   -4.7046   32.4314 H         1 SUB1        0.028
     30 H203       42.0109   -5.6750   30.9988 H         1 SUB1        0.028
@<TRIPOS>BOND
     1    8    1 1  
     2   11    2 1  
     3   12    3 1  
     4   13    4 1  
     5    7   14 1  
     6    7   12 ar 
     7    8    7 ar 
     8    9    8 ar 
     9    9   13 1  
    10   10    9 ar 
    11   10   15 1  
    12   10   11 ar 
    13   11   12 ar 
    14   13   18 2  
    15   18   19 1  
    16   19   21 1  
    17   19   20 1  
    18   21   23 2  
    19   21   22 2  
    20   14   17 1  
    21   14   16 1  
    22   15    5 1  
    23   16    6 1  
    24   16   24 1  
    25   17   25 1  
    26   17   26 1  
    27   19   27 1  
    28   20   28 1  
    29   20   29 1  
    30   20   30 1  
@<TRIPOS>SUBSTRUCTURE
     1 SUB1        1 GROUP

