### 
### Created by X-TOOL on Mon Oct 24 22:19:23 2005
### 

@<TRIPOS>MOLECULE
1px4_ligand
   33    33     1     0     0
SMALL
GAST_HUCK


@<TRIPOS>ATOM
      1 C1        -13.4220  -28.7450  -27.5670 C.3       1 SUB1        0.133
      2 C2        -12.1800  -28.5480  -26.7120 C.3       1 SUB1        0.119
      3 O2        -12.3240  -27.3940  -25.8730 O.3       1 SUB1       -0.386
      4 C3        -10.9600  -28.3510  -27.5820 C.3       1 SUB1        0.113
      5 O3         -9.7790  -28.3520  -26.7440 O.3       1 SUB1       -0.387
      6 C4        -10.8350  -29.4890  -28.6090 C.3       1 SUB1        0.112
      7 O4        -10.6400  -30.7350  -27.9070 O.3       1 SUB1       -0.387
      8 C5        -12.1800  -29.5300  -29.3410 C.3       1 SUB1        0.112
      9 O5        -13.2040  -29.8530  -28.4130 O.3       1 SUB1       -0.355
     10 C6        -12.3400  -30.7780  -30.1850 C.3       1 SUB1        0.073
     11 O6        -11.3190  -30.6160  -31.2070 O.3       1 SUB1       -0.392
     12 S1        -14.7330  -29.2640  -26.4290 S.3       1 SUB1       -0.124
     13 C1'       -16.2740  -28.7490  -27.3190 C.3       1 SUB1        0.002
     14 C2'       -17.4530  -28.7770  -26.3550 C.3       1 SUB1       -0.054
     15 C3'       -16.5630  -29.6810  -28.5180 C.3       1 SUB1       -0.054
     16 H11       -13.6843  -27.8372  -28.1302 H         1 SUB1        0.074
     17 H21       -12.0373  -29.4391  -26.0830 H         1 SUB1        0.065
     18 H31       -11.5402  -27.2865  -25.3469 H         1 SUB1        0.210
     19 H41       -11.0405  -27.3894  -28.1100 H         1 SUB1        0.065
     20 H51        -9.7169  -29.1827  -26.2872 H         1 SUB1        0.210
     21 H61       -10.0061  -29.3061  -29.3086 H         1 SUB1        0.065
     22 H71       -11.3833  -30.8962  -27.3379 H         1 SUB1        0.210
     23 H81       -12.3528  -28.5977  -29.8986 H         1 SUB1        0.065
     24 H101      -13.3434  -30.8261  -30.6331 H         1 SUB1        0.058
     25 H102      -12.1612  -31.6844  -29.5880 H         1 SUB1        0.058
     26 H111      -11.3403  -31.3616  -31.7953 H         1 SUB1        0.209
     27 H131      -16.1402  -27.7232  -27.6930 H         1 SUB1        0.041
     28 H141      -18.3671  -28.4710  -26.8848 H         1 SUB1        0.024
     29 H142      -17.2624  -28.0839  -25.5224 H         1 SUB1        0.024
     30 H143      -17.5810  -29.7963  -25.9617 H         1 SUB1        0.024
     31 H151      -17.4815  -29.3513  -29.0256 H         1 SUB1        0.024
     32 H152      -16.6931  -30.7122  -28.1579 H         1 SUB1        0.024
     33 H153      -15.7201  -29.6427  -29.2237 H         1 SUB1        0.024
@<TRIPOS>BOND
     1    1    2 1  
     2    1    9 1  
     3    1   12 1  
     4    2    3 1  
     5    2    4 1  
     6    4    5 1  
     7    4    6 1  
     8    6    7 1  
     9    6    8 1  
    10    8    9 1  
    11    8   10 1  
    12   10   11 1  
    13   12   13 1  
    14   13   14 1  
    15   13   15 1  
    16    1   16 1  
    17    2   17 1  
    18    3   18 1  
    19    4   19 1  
    20    5   20 1  
    21    6   21 1  
    22    7   22 1  
    23    8   23 1  
    24   10   24 1  
    25   10   25 1  
    26   11   26 1  
    27   13   27 1  
    28   14   28 1  
    29   14   29 1  
    30   14   30 1  
    31   15   31 1  
    32   15   32 1  
    33   15   33 1  
@<TRIPOS>SUBSTRUCTURE
     1 SUB1        1 GROUP

