### 
### Created by X-TOOL on Mon Oct 24 22:35:39 2005
### 

@<TRIPOS>MOLECULE
1f57_ligand
   14    13     1     0     0
SMALL
GAST_HUCK


@<TRIPOS>ATOM
      1 H21        10.4243  -11.4385   22.1776 H         1 SUB1        0.202
      2 N          10.3800  -11.1390   23.1390 N.4       1 SUB1        0.239
      3 CA          9.8350   -9.7500   23.2030 C.3       1 SUB1        0.024
      4 C           9.7540   -9.2620   24.6560 C.2       1 SUB1        0.077
      5 O           9.1790   -8.1830   24.9000 O.co2     1 SUB1       -0.561
      6 CB         10.7420   -8.8210   22.3980 C.3       1 SUB1        0.045
      7 SG         12.4220   -8.5870   23.0460 S.3       1 SUB1       -0.169
      8 OXT        10.2820   -9.9690   25.5330 O.co2     1 SUB1       -0.561
      9 H22         9.7785  -11.7602   23.6570 H         1 SUB1        0.202
     10 H23        11.3050  -11.1558   23.5391 H         1 SUB1        0.202
     11 H31         8.8254   -9.7399   22.7665 H         1 SUB1        0.108
     12 H61        10.2583   -7.8341   22.3539 H         1 SUB1        0.047
     13 H62        10.8281   -9.2329   21.3817 H         1 SUB1        0.047
     14 H71        12.9297   -7.9601   22.4416 H         1 SUB1        0.102
@<TRIPOS>BOND
     1    2    3 1  
     2    3    6 1  
     3    3    4 1  
     4    4    8 2  
     5    4    5 2  
     6    6    7 1  
     7    2    1 1  
     8    2    9 1  
     9    2   10 1  
    10    3   11 1  
    11    6   12 1  
    12    6   13 1  
    13    7   14 1  
@<TRIPOS>SUBSTRUCTURE
     1 SUB1        1 GROUP

