1f57_ligand
  -I-interpret- 

 14 13  0  0  0  0  0  0  0  0999 V2000
   10.4243  -11.4385   22.1776 H   0  0  0  0  0
   10.3800  -11.1390   23.1390 N   0  3  0  0  0
    9.8350   -9.7500   23.2030 C   0  0  0  0  0
    9.7540   -9.2620   24.6560 C   0  0  0  0  0
    9.1790   -8.1830   24.9000 O   0  5  0  0  0
   10.7420   -8.8210   22.3980 C   0  0  0  0  0
   12.4220   -8.5870   23.0460 S   0  0  0  0  0
   10.2820   -9.9690   25.5330 O   0  0  0  0  0
    9.7785  -11.7602   23.6570 H   0  0  0  0  0
   11.3050  -11.1558   23.5391 H   0  0  0  0  0
    8.8254   -9.7399   22.7665 H   0  0  0  0  0
   10.2583   -7.8341   22.3539 H   0  0  0  0  0
   10.8281   -9.2329   21.3817 H   0  0  0  0  0
   12.9297   -7.9601   22.4416 H   0  0  0  0  0
  2  3  1  0  0  0
  3  6  1  0  0  0
  3  4  1  0  0  0
  4  8  2  0  0  0
  4  5  1  0  0  0
  6  7  1  0  0  0
  2  1  1  0  0  0
  2  9  1  0  0  0
  2 10  1  0  0  0
  3 11  1  0  0  0
  6 12  1  0  0  0
  6 13  1  0  0  0
  7 14  1  0  0  0
M  END
$$$$
