1z3v_ligand
  -I-interpret- 

 45 46  0  0  0  0  0  0  0  0999 V2000
    2.9850   10.7630   23.5020 C   0  0  0  0  0
    4.1620    9.8390   23.3090 C   0  0  0  0  0
    4.0790    8.6530   24.2540 C   0  0  0  0  0
    3.9400    9.0860   25.7110 C   0  0  0  0  0
    2.7600   10.0540   25.8470 C   0  0  0  0  0
    2.5360   10.5430   27.2760 C   0  0  0  0  0
    3.2220   12.0640   22.9290 O   0  0  0  0  0
    4.2250    9.4460   21.9390 O   0  0  0  0  0
    5.2520    7.8750   24.0550 O   0  0  0  0  0
    5.1590    9.6780   26.1360 O   0  0  0  0  0
    3.0490   11.1630   25.0140 O   0  0  0  0  0
    3.6490   11.3400   27.6390 O   0  0  0  0  0
    0.6790   15.1230   21.8670 C   0  0  0  0  0
    1.1500   15.0860   23.1280 C   0  0  0  0  0
    1.9150   14.0440   23.5240 C   0  0  0  0  0
    2.0660   12.9460   22.7490 C   0  0  0  0  0
    1.5980   12.9320   21.5020 C   0  0  0  0  0
    1.5220   11.6540   20.6910 C   0  0  0  0  0
   -0.0950   15.9920   21.4360 O   0  0  0  0  0
    1.2390   16.1490   23.7790 O   0  0  0  0  0
    2.1730   13.9520   24.7440 O   0  0  0  0  0
    0.5590   13.8640   21.1600 O   0  0  0  0  0
    0.4600   10.8990   21.2640 O   0  0  0  0  0
    2.0970   10.2711   23.1051 H   0  0  0  0  0
    5.0879   10.3589   23.5551 H   0  0  0  0  0
    3.1859    8.0673   24.0362 H   0  0  0  0  0
    3.7382    8.2253   26.3486 H   0  0  0  0  0
    1.8461    9.5334   25.5607 H   0  0  0  0  0
    2.4387    9.6962   27.9554 H   0  0  0  0  0
    1.6168   11.1255   27.3374 H   0  0  0  0  0
    5.0034    8.9018   21.7988 H   0  0  0  0  0
    6.0233    8.3940   24.2945 H   0  0  0  0  0
    5.0841    9.9354   27.0578 H   0  0  0  0  0
    4.4492   10.8122   27.5882 H   0  0  0  0  0
    1.2788   12.4645   23.3292 H   0  0  0  0  0
    2.5396   13.3432   21.1380 H   0  0  0  0  0
    2.4633   11.1053   20.7233 H   0  0  0  0  0
    1.3393   11.8617   19.6367 H   0  0  0  0  0
    0.3638   10.0713   20.7873 H   0  0  0  0  0
    1.5990   15.4985   21.3953 H   0  0  0  0  0
    0.2158   14.7353   23.5909 H   0  0  0  0  0
    2.8730   14.5023   23.2372 H   0  0  0  0  0
    0.0235   16.7939   21.9314 H   0  0  0  0  0
    0.6562   16.7986   23.4037 H   0  0  0  0  0
    2.0242   14.7919   25.1622 H   0  0  0  0  0
  1  2  1  0  0  0
  7  1  1  0  0  0
  1 11  1  0  0  0
  2  3  1  0  0  0
  2  8  1  0  0  0
  3  4  1  0  0  0
  3  9  1  0  0  0
  5  4  1  0  0  0
  4 10  1  0  0  0
  5  6  1  0  0  0
 11  5  1  0  0  0
  6 12  1  0  0  0
 16  7  1  0  0  0
 14 13  1  0  0  0
 13 19  1  0  0  0
 13 22  1  0  0  0
 15 14  1  0  0  0
 14 20  1  0  0  0
 15 16  1  0  0  0
 15 21  1  0  0  0
 16 17  1  0  0  0
 17 18  1  0  0  0
 17 22  1  0  0  0
 18 23  1  0  0  0
  1 24  1  0  0  0
  2 25  1  0  0  0
  3 26  1  0  0  0
  4 27  1  0  0  0
  5 28  1  0  0  0
  6 29  1  0  0  0
  6 30  1  0  0  0
  8 31  1  0  0  0
  9 32  1  0  0  0
 10 33  1  0  0  0
 12 34  1  0  0  0
 16 35  1  0  0  0
 17 36  1  0  0  0
 18 37  1  0  0  0
 18 38  1  0  0  0
 23 39  1  0  0  0
 13 40  1  0  0  0
 14 41  1  0  0  0
 15 42  1  0  0  0
 19 43  1  0  0  0
 20 44  1  0  0  0
 21 45  1  0  0  0
M  END
$$$$
