### 
### Created by X-TOOL on Sun Jun  3 11:48:42 2007
### 

@<TRIPOS>MOLECULE
1z3v_ligand
   45    46     1     0     0
SMALL
GAST_HUCK


@<TRIPOS>ATOM
      1 C1          2.9850   10.7630   23.5020 C.3       1 SUB1        0.188
      2 C2          4.1620    9.8390   23.3090 C.3       1 SUB1        0.134
      3 C3          4.0790    8.6530   24.2540 C.3       1 SUB1        0.114
      4 C4          3.9400    9.0860   25.7110 C.3       1 SUB1        0.112
      5 C5          2.7600   10.0540   25.8470 C.3       1 SUB1        0.113
      6 C6          2.5360   10.5430   27.2760 C.3       1 SUB1        0.073
      7 O1          3.2220   12.0640   22.9290 O.3       1 SUB1       -0.340
      8 O2          4.2250    9.4460   21.9390 O.3       1 SUB1       -0.384
      9 O3          5.2520    7.8750   24.0550 O.3       1 SUB1       -0.386
     10 O4          5.1590    9.6780   26.1360 O.3       1 SUB1       -0.387
     11 O5          3.0490   11.1630   25.0140 O.3       1 SUB1       -0.340
     12 O6          3.6490   11.3400   27.6390 O.3       1 SUB1       -0.392
     13 C1'         0.6790   15.1230   21.8670 C.3       1 SUB1        0.185
     14 C2'         1.1500   15.0860   23.1280 C.3       1 SUB1        0.134
     15 C3'         1.9150   14.0440   23.5240 C.3       1 SUB1        0.114
     16 C4'         2.0660   12.9460   22.7490 C.3       1 SUB1        0.118
     17 C5'         1.5980   12.9320   21.5020 C.3       1 SUB1        0.113
     18 C6'         1.5220   11.6540   20.6910 C.3       1 SUB1        0.073
     19 O1'        -0.0950   15.9920   21.4360 O.3       1 SUB1       -0.365
     20 O2'         1.2390   16.1490   23.7790 O.3       1 SUB1       -0.384
     21 O3'         2.1730   13.9520   24.7440 O.3       1 SUB1       -0.386
     22 O5'         0.5590   13.8640   21.1600 O.3       1 SUB1       -0.341
     23 O6'         0.4600   10.8990   21.2640 O.3       1 SUB1       -0.392
     24 H           2.0970   10.2711   23.1051 H         1 SUB1        0.094
     25 H           5.0879   10.3589   23.5551 H         1 SUB1        0.067
     26 H           3.1859    8.0673   24.0362 H         1 SUB1        0.065
     27 H           3.7382    8.2253   26.3486 H         1 SUB1        0.065
     28 H           1.8461    9.5334   25.5607 H         1 SUB1        0.065
     29 H           2.4387    9.6962   27.9554 H         1 SUB1        0.058
     30 H           1.6168   11.1255   27.3374 H         1 SUB1        0.058
     31 H           5.0034    8.9018   21.7988 H         1 SUB1        0.210
     32 H           6.0233    8.3940   24.2945 H         1 SUB1        0.210
     33 H           5.0841    9.9354   27.0578 H         1 SUB1        0.210
     34 H           4.4492   10.8122   27.5882 H         1 SUB1        0.209
     35 H           1.2788   12.4645   23.3292 H         1 SUB1        0.065
     36 H           2.5396   13.3432   21.1380 H         1 SUB1        0.065
     37 H           2.4633   11.1053   20.7233 H         1 SUB1        0.058
     38 H           1.3393   11.8617   19.6367 H         1 SUB1        0.058
     39 H           0.3638   10.0713   20.7873 H         1 SUB1        0.209
     40 H           1.5990   15.4985   21.3953 H         1 SUB1        0.094
     41 H           0.2158   14.7353   23.5909 H         1 SUB1        0.067
     42 H           2.8730   14.5023   23.2372 H         1 SUB1        0.065
     43 H           0.0235   16.7939   21.9314 H         1 SUB1        0.213
     44 H           0.6562   16.7986   23.4037 H         1 SUB1        0.210
     45 H           2.0242   14.7919   25.1622 H         1 SUB1        0.210
@<TRIPOS>BOND
     1    1    2 1  
     2    7    1 1  
     3    1   11 1  
     4    2    3 1  
     5    2    8 1  
     6    3    4 1  
     7    3    9 1  
     8    5    4 1  
     9    4   10 1  
    10    5    6 1  
    11   11    5 1  
    12    6   12 1  
    13   16    7 1  
    14   14   13 1  
    15   13   19 1  
    16   13   22 1  
    17   15   14 1  
    18   14   20 1  
    19   15   16 1  
    20   15   21 1  
    21   16   17 1  
    22   17   18 1  
    23   17   22 1  
    24   18   23 1  
    25    1   24 1  
    26    2   25 1  
    27    3   26 1  
    28    4   27 1  
    29    5   28 1  
    30    6   29 1  
    31    6   30 1  
    32    8   31 1  
    33    9   32 1  
    34   10   33 1  
    35   12   34 1  
    36   16   35 1  
    37   17   36 1  
    38   18   37 1  
    39   18   38 1  
    40   23   39 1  
    41   13   40 1  
    42   14   41 1  
    43   15   42 1  
    44   19   43 1  
    45   20   44 1  
    46   21   45 1  
@<TRIPOS>SUBSTRUCTURE
     1 SUB1        1 GROUP

