1jn2_ligand
  -I-interpret- 

 54 56  0  0  0  0  0  0  0  0999 V2000
   26.7480   27.5660   27.2040 C   0  0  0  0  0
   25.9960   27.5080   28.3980 C   0  0  0  0  0
   26.8860   27.4290   29.4890 N   0  0  0  0  0
   24.6030   27.4930   28.4970 C   0  0  0  0  0
   23.8700   27.4580   29.6670 C   0  0  0  0  0
   22.4860   27.4170   29.7550 C   0  0  0  0  0
   22.1440   27.4230   31.0570 C   0  0  0  0  0
   23.3260   27.4580   31.8240 C   0  0  0  0  0
   24.3970   27.4700   30.9590 N   0  0  0  0  0
   23.4050   27.4760   33.2090 C   0  0  0  0  0
   24.6030   27.4460   33.9590 C   0  0  0  0  0
   24.7010   27.4550   35.3610 C   0  0  0  0  0
   25.9070   27.3550   33.4250 N   0  0  0  0  0
   21.0460   28.4630   33.6140 C   0  0  0  0  0
   19.8510   28.4480   34.2740 C   0  0  0  0  0
   19.6210   27.5040   35.2930 C   0  0  0  0  0
   20.5910   26.5480   35.6600 C   0  0  0  0  0
   21.8030   26.5300   35.0020 C   0  0  0  0  0
   22.0530   27.4960   33.9640 C   0  0  0  0  0
   23.9640   26.3540   26.3180 C   0  0  0  0  0
   23.7750   27.4790   27.1880 C   0  0  0  0  0
   22.8410   28.5110   26.8480 C   0  0  0  0  0
   22.1130   28.3970   25.6420 C   0  0  0  0  0
   22.3190   27.2950   24.8070 C   0  0  0  0  0
   23.2370   26.2690   25.1250 C   0  0  0  0  0
   18.0950   27.4980   36.1410 S   0  0  0  0  0
   17.2430   28.5390   35.6510 O   0  0  0  0  0
   18.4080   27.6960   37.5150 O   0  0  0  0  0
   17.4300   26.1250   35.9280 O   0  5  0  0  0
   21.4420   27.1510   23.3080 S   0  0  0  0  0
   22.3500   27.4330   22.2650 O   0  0  0  0  0
   20.3390   28.0710   23.2660 O   0  0  0  0  0
   20.9530   25.7200   23.2290 O   0  5  0  0  0
   26.0585   27.6278   26.3491 H   0  0  0  0  0
   27.3924   28.4574   27.2095 H   0  0  0  0  0
   27.3628   26.6594   27.1035 H   0  0  0  0  0
   26.5193   27.3784   30.4502 H   0  0  0  0  0
   27.9028   27.4219   29.3247 H   0  0  0  0  0
   21.7944   27.3854   28.9144 H   0  0  0  0  0
   21.1286   27.4041   31.4501 H   0  0  0  0  0
   25.3944   27.4849   31.2159 H   0  0  0  0  0
   25.7630   27.4252   35.6460 H   0  0  0  0  0
   24.2481   28.3733   35.7628 H   0  0  0  0  0
   24.1933   26.5729   35.7782 H   0  0  0  0  0
   26.0454   27.3348   32.4045 H   0  0  0  0  0
   26.7198   27.3089   34.0559 H   0  0  0  0  0
   21.2341   29.1941   32.8361 H   0  0  0  0  0
   19.0791   29.1630   34.0135 H   0  0  0  0  0
   20.3861   25.8352   36.4506 H   0  0  0  0  0
   22.5582   25.7975   35.2631 H   0  0  0  0  0
   24.6671   25.5729   26.5836 H   0  0  0  0  0
   22.6956   29.3625   27.5029 H   0  0  0  0  0
   21.3967   29.1621   25.3652 H   0  0  0  0  0
   23.3762   25.4284   24.4549 H   0  0  0  0  0
  2  1  1  0  0  0
  2  3  1  0  0  0
  4  2  2  0  0  0
  5  4  1  0  0  0
  4 21  1  0  0  0
  5  6  2  0  0  0
  9  5  1  0  0  0
  7  6  1  0  0  0
  8  7  2  0  0  0
  8  9  1  0  0  0
 10  8  1  0  0  0
 10 11  2  0  0  0
 19 10  1  0  0  0
 11 12  1  0  0  0
 11 13  1  0  0  0
 14 15  4  0  0  0
 19 14  4  0  0  0
 15 16  4  0  0  0
 16 17  4  0  0  0
 16 26  1  0  0  0
 17 18  4  0  0  0
 18 19  4  0  0  0
 21 22  4  0  0  0
 22 23  4  0  0  0
 23 24  4  0  0  0
 24 25  4  0  0  0
 24 30  1  0  0  0
 26 27  2  0  0  0
 26 28  2  0  0  0
 26 29  1  0  0  0
 30 31  2  0  0  0
 30 32  2  0  0  0
 30 33  1  0  0  0
 25 20  4  0  0  0
 21 20  4  0  0  0
  1 34  1  0  0  0
  1 35  1  0  0  0
  1 36  1  0  0  0
  3 37  1  0  0  0
  3 38  1  0  0  0
  6 39  1  0  0  0
  7 40  1  0  0  0
  9 41  1  0  0  0
 12 42  1  0  0  0
 12 43  1  0  0  0
 12 44  1  0  0  0
 13 45  1  0  0  0
 13 46  1  0  0  0
 14 47  1  0  0  0
 15 48  1  0  0  0
 17 49  1  0  0  0
 18 50  1  0  0  0
 20 51  1  0  0  0
 22 52  1  0  0  0
 23 53  1  0  0  0
 25 54  1  0  0  0
M  END
$$$$
