### 
### Created by X-TOOL on Tue Oct 25 02:33:36 2005
### 

@<TRIPOS>MOLECULE
1vot_ligand
   37    39     1     0     0
SMALL
GAST_HUCK


@<TRIPOS>ATOM
      1 C1          1.0960   69.1690   60.6670 C.2       1 SUB1        0.233
      2 O1          0.5910   69.5470   59.5810 O.2       1 SUB1       -0.388
      3 N1          2.4300   68.8470   60.7360 N.am      1 SUB1       -0.180
      4 C2          0.3550   69.0160   61.8850 C.2       1 SUB1        0.004
      5 C3          0.9710   68.6140   63.0250 C.2       1 SUB1       -0.067
      6 C4          2.3680   68.3330   63.0880 C.2       1 SUB1       -0.012
      7 C5          3.0880   68.4370   61.8980 C.2       1 SUB1        0.128
      8 C6          4.5590   68.2360   61.7940 C.3       1 SUB1        0.058
      9 C7          5.1250   67.5770   63.0860 C.3       1 SUB1        0.003
     10 C8          4.8110   66.0980   63.1810 C.2       1 SUB1       -0.096
     11 C9          6.4780   69.8190   64.7220 C.3       1 SUB1       -0.016
     12 C10         5.0720   69.3510   64.8500 C.2       1 SUB1       -0.058
     13 C11         4.5400   68.3110   64.2660 C.2       1 SUB1       -0.070
     14 C12         3.0810   67.9710   64.4350 C.3       1 SUB1       -0.053
     15 N2          2.4610   68.7050   65.5570 N.4       1 SUB1        0.099
     16 C13         2.9410   66.4850   64.7410 C.3       1 SUB1       -0.048
     17 C14         3.8190   65.6040   63.9290 C.2       1 SUB1       -0.096
     18 C15         3.5550   64.1250   64.1060 C.3       1 SUB1       -0.041
     19 H31         2.9676   68.9106   59.8952 H         1 SUB1        0.279
     20 H41        -0.7138   69.2247   61.8951 H         1 SUB1        0.052
     21 H51         0.3744   68.5012   63.9290 H         1 SUB1        0.068
     22 H81         5.0456   69.2111   61.6448 H         1 SUB1        0.067
     23 H82         4.7731   67.5840   60.9343 H         1 SUB1        0.067
     24 H91         6.2185   67.6961   63.0916 H         1 SUB1        0.053
     25 H101        5.4245   65.4018   62.6110 H         1 SUB1        0.026
     26 H111        6.6214   70.7210   65.3350 H         1 SUB1        0.051
     27 H112        6.6919   70.0537   63.6688 H         1 SUB1        0.051
     28 H113        7.1605   69.0286   65.0675 H         1 SUB1        0.051
     29 H121        4.4193   69.9354   65.4969 H         1 SUB1        0.101
     30 H151        1.4895   68.4467   65.6314 H         1 SUB1        0.192
     31 H152        2.5332   69.6965   65.3907 H         1 SUB1        0.192
     32 H153        2.9371   68.4726   66.4145 H         1 SUB1        0.192
     33 H161        1.8965   66.1931   64.5569 H         1 SUB1        0.023
     34 H162        3.1840   66.3283   65.8023 H         1 SUB1        0.023
     35 H181        4.2461   63.5507   63.4715 H         1 SUB1        0.038
     36 H182        2.5181   63.9003   63.8157 H         1 SUB1        0.038
     37 H183        3.7090   63.8485   65.1595 H         1 SUB1        0.038
@<TRIPOS>BOND
     1    1    4 1  
     2    1    3 am 
     3    1    2 2  
     4    3    7 am 
     5    7    8 1  
     6    7    6 2  
     7    6   14 1  
     8    6    5 1  
     9    5    4 2  
    10   14   16 1  
    11   14   15 1  
    12   14   13 1  
    13   13   12 2  
    14   13    9 1  
    15    9   10 1  
    16    9    8 1  
    17   10   17 2  
    18   17   18 1  
    19   17   16 1  
    20   12   11 1  
    21    3   19 1  
    22    4   20 1  
    23    5   21 1  
    24    8   22 1  
    25    8   23 1  
    26    9   24 1  
    27   10   25 1  
    28   11   26 1  
    29   11   27 1  
    30   11   28 1  
    31   12   29 1  
    32   15   30 1  
    33   15   31 1  
    34   15   32 1  
    35   16   33 1  
    36   16   34 1  
    37   18   35 1  
    38   18   36 1  
    39   18   37 1  
@<TRIPOS>SUBSTRUCTURE
     1 SUB1        1 GROUP

