1vot_ligand
  -I-interpret- 

 37 39  0  0  0  0  0  0  0  0999 V2000
    1.0960   69.1690   60.6670 C   0  0  0  0  0
    0.5910   69.5470   59.5810 O   0  0  0  0  0
    2.4300   68.8470   60.7360 N   0  0  0  0  0
    0.3550   69.0160   61.8850 C   0  0  0  0  0
    0.9710   68.6140   63.0250 C   0  0  0  0  0
    2.3680   68.3330   63.0880 C   0  0  0  0  0
    3.0880   68.4370   61.8980 C   0  0  0  0  0
    4.5590   68.2360   61.7940 C   0  0  0  0  0
    5.1250   67.5770   63.0860 C   0  0  0  0  0
    4.8110   66.0980   63.1810 C   0  0  0  0  0
    6.4780   69.8190   64.7220 C   0  0  0  0  0
    5.0720   69.3510   64.8500 C   0  0  0  0  0
    4.5400   68.3110   64.2660 C   0  0  0  0  0
    3.0810   67.9710   64.4350 C   0  0  0  0  0
    2.4610   68.7050   65.5570 N   0  3  0  0  0
    2.9410   66.4850   64.7410 C   0  0  0  0  0
    3.8190   65.6040   63.9290 C   0  0  0  0  0
    3.5550   64.1250   64.1060 C   0  0  0  0  0
    2.9676   68.9106   59.8952 H   0  0  0  0  0
   -0.7138   69.2247   61.8951 H   0  0  0  0  0
    0.3744   68.5012   63.9290 H   0  0  0  0  0
    5.0456   69.2111   61.6448 H   0  0  0  0  0
    4.7731   67.5840   60.9343 H   0  0  0  0  0
    6.2185   67.6961   63.0916 H   0  0  0  0  0
    5.4245   65.4018   62.6110 H   0  0  0  0  0
    6.6214   70.7210   65.3350 H   0  0  0  0  0
    6.6919   70.0537   63.6688 H   0  0  0  0  0
    7.1605   69.0286   65.0675 H   0  0  0  0  0
    4.4193   69.9354   65.4969 H   0  0  0  0  0
    1.4895   68.4467   65.6314 H   0  0  0  0  0
    2.5332   69.6965   65.3907 H   0  0  0  0  0
    2.9371   68.4726   66.4145 H   0  0  0  0  0
    1.8965   66.1931   64.5569 H   0  0  0  0  0
    3.1840   66.3283   65.8023 H   0  0  0  0  0
    4.2461   63.5507   63.4715 H   0  0  0  0  0
    2.5181   63.9003   63.8157 H   0  0  0  0  0
    3.7090   63.8485   65.1595 H   0  0  0  0  0
  1  4  1  0  0  0
  1  3  1  0  0  0
  1  2  2  0  0  0
  3  7  1  0  0  0
  7  8  1  0  0  0
  7  6  2  0  0  0
  6 14  1  0  0  0
  6  5  1  0  0  0
  5  4  2  0  0  0
 14 16  1  0  0  0
 14 15  1  0  0  0
 14 13  1  0  0  0
 13 12  2  0  0  0
 13  9  1  0  0  0
  9 10  1  0  0  0
  9  8  1  0  0  0
 10 17  2  0  0  0
 17 18  1  0  0  0
 17 16  1  0  0  0
 12 11  1  0  0  0
  3 19  1  0  0  0
  4 20  1  0  0  0
  5 21  1  0  0  0
  8 22  1  0  0  0
  8 23  1  0  0  0
  9 24  1  0  0  0
 10 25  1  0  0  0
 11 26  1  0  0  0
 11 27  1  0  0  0
 11 28  1  0  0  0
 12 29  1  0  0  0
 15 30  1  0  0  0
 15 31  1  0  0  0
 15 32  1  0  0  0
 16 33  1  0  0  0
 16 34  1  0  0  0
 18 35  1  0  0  0
 18 36  1  0  0  0
 18 37  1  0  0  0
M  END
$$$$
