### 
### Created by X-TOOL on Tue Oct 25 02:16:01 2005
### 

@<TRIPOS>MOLECULE
1hnn_ligand
   26    27     1     0     0
SMALL
GAST_HUCK


@<TRIPOS>ATOM
      1 C4         28.3480   46.0370   16.7830 C.ar      1 SUB1       -0.065
      2 C5         27.8990   45.5320   15.5700 C.ar      1 SUB1       -0.049
      3 C6         27.8220   44.1470   15.3850 C.ar      1 SUB1        0.094
      4 C7         28.1930   43.2860   16.4100 C.ar      1 SUB1       -0.039
      5 S          27.2610   43.4900   13.8470 S.o2      1 SUB1        0.061
      6 C8         28.6420   43.7900   17.6160 C.ar      1 SUB1       -0.025
      7 C9         28.7200   45.1740   17.8070 C.ar      1 SUB1       -0.038
      8 O1         27.4850   44.4300   12.7700 O.2       1 SUB1       -0.152
      9 O2         25.8660   43.1330   13.8730 O.2       1 SUB1       -0.152
     10 N          28.1050   42.1870   13.5730 N.am      1 SUB1       -0.262
     11 C1         28.9650   42.8430   18.7440 C.3       1 SUB1        0.028
     12 C2         29.2110   44.8480   20.1940 C.3       1 SUB1        0.006
     13 C3         29.4880   45.7050   18.9780 C.3       1 SUB1       -0.009
     14 N1         29.7000   43.4830   19.8600 N.3       1 SUB1       -0.305
     15 H11        28.4087   47.1090   16.9320 H         1 SUB1        0.054
     16 H21        27.6101   46.2060   14.7717 H         1 SUB1        0.056
     17 H41        28.1301   42.2138   16.2633 H         1 SUB1        0.056
     18 H101       27.9450   41.6530   12.7428 H         1 SUB1        0.163
     19 H102       28.8004   41.8945   14.2294 H         1 SUB1        0.163
     20 H111       29.5815   42.0239   18.3454 H         1 SUB1        0.057
     21 H112       28.0222   42.4347   19.1368 H         1 SUB1        0.057
     22 H121       28.1320   44.8250   20.4066 H         1 SUB1        0.045
     23 H122       29.7488   45.2422   21.0689 H         1 SUB1        0.045
     24 H131       29.1775   46.7405   19.1810 H         1 SUB1        0.042
     25 H132       30.5641   45.6826   18.7512 H         1 SUB1        0.042
     26 H141       30.7425   43.5519   19.5865 H         1 SUB1        0.124
@<TRIPOS>BOND
     1    1    2 ar 
     2    1    7 ar 
     3    2    3 ar 
     4    3    4 ar 
     5    3    5 1  
     6    4    6 ar 
     7    5    8 2  
     8    5    9 2  
     9    5   10 1  
    10    6    7 ar 
    11    6   11 1  
    12    7   13 1  
    13   11   14 1  
    14   13   12 1  
    15   12   14 1  
    16    1   15 1  
    17    2   16 1  
    18    4   17 1  
    19   10   18 1  
    20   10   19 1  
    21   11   20 1  
    22   11   21 1  
    23   12   22 1  
    24   12   23 1  
    25   13   24 1  
    26   13   25 1  
    27   14   26 1  
@<TRIPOS>SUBSTRUCTURE
     1 SUB1        1 GROUP

