1g3c_ligand
  -I-interpret- 

 30 30  0  0  0  0  0  0  0  0999 V2000
   43.7760   -2.9840   26.3340 C   0  0  0  0  0
   42.6870   -3.4910   27.0250 C   0  0  0  0  0
   42.1470   -2.8120   28.1190 C   0  0  0  0  0
   42.7050   -1.5930   28.5210 C   0  0  0  0  0
   43.8020   -1.0980   27.8230 C   0  0  0  0  0
   44.3300   -1.7810   26.7420 C   0  0  0  0  0
   42.1720   -0.8230   29.6300 C   0  0  0  0  0
   44.3230   -3.6950   25.1950 C   0  3  0  0  0
   41.0910   -3.4080   28.7090 O   0  0  0  0  0
   44.3660   -5.0210   25.1850 N   0  0  0  0  0
   44.7760   -3.0120   24.1510 N   0  0  0  0  0
   41.1490   -1.1790   30.3540 N   0  0  0  0  0
   40.7150   -0.2720   31.4140 C   0  0  0  0  0
   39.8550    0.8360   30.8140 C   0  0  0  0  0
   39.9250   -1.0200   32.4830 C   0  0  0  0  0
   39.9130   -0.5670   33.6350 O   0  0  0  0  0
   39.3100   -2.0870   32.1030 O   0  5  0  0  0
   42.2470   -4.4306   26.7109 H   0  0  0  0  0
   44.2508   -0.1608   28.1316 H   0  0  0  0  0
   45.1822   -1.3727   26.2109 H   0  0  0  0  0
   42.6617    0.1186   29.8741 H   0  0  0  0  0
   40.3368   -2.8322   28.6620 H   0  0  0  0  0
   44.7564   -5.5175   24.3714 H   0  0  0  0  0
   44.0090   -5.5539   25.9909 H   0  0  0  0  0
   44.7439   -1.9825   24.1559 H   0  0  0  0  0
   45.1596   -3.5115   23.3360 H   0  0  0  0  0
   41.6034    0.1774   31.8817 H   0  0  0  0  0
   39.5281    1.5191   31.6118 H   0  0  0  0  0
   38.9739    0.3931   30.3267 H   0  0  0  0  0
   40.4429    1.3948   30.0710 H   0  0  0  0  0
  1  2  4  0  0  0
  1  6  4  0  0  0
  1  8  1  0  0  0
  2  3  4  0  0  0
  3  4  4  0  0  0
  3  9  1  0  0  0
  4  5  4  0  0  0
  4  7  1  0  0  0
  5  6  4  0  0  0
  7 12  2  0  0  0
  8 10  1  0  0  0
  8 11  1  0  0  0
 12 13  1  0  0  0
 13 14  1  0  0  0
 13 15  1  0  0  0
 15 16  2  0  0  0
 15 17  1  0  0  0
  2 18  1  0  0  0
  5 19  1  0  0  0
  6 20  1  0  0  0
  7 21  1  0  0  0
  9 22  1  0  0  0
 10 23  1  0  0  0
 10 24  1  0  0  0
 11 25  1  0  0  0
 11 26  1  0  0  0
 13 27  1  0  0  0
 14 28  1  0  0  0
 14 29  1  0  0  0
 14 30  1  0  0  0
M  END
$$$$
