### 
### Created by X-TOOL on Mon Oct 24 21:53:11 2005
### 

@<TRIPOS>MOLECULE
1o8b_ligand
   23    23     1     0     0
SMALL
GAST_HUCK


@<TRIPOS>ATOM
      1 C1'        21.7590   19.8370   19.9980 C.3       1 SUB1        0.185
      2 O1'        23.1140   20.3290   19.8870 O.3       1 SUB1       -0.340
      3 C2'        21.2080   19.9720   18.7340 C.3       1 SUB1        0.134
      4 O2'        19.9260   19.7700   18.5840 O.3       1 SUB1       -0.384
      5 C3'        21.7520   21.1200   18.2010 C.3       1 SUB1        0.115
      6 O3'        21.8190   21.2260   16.8910 O.3       1 SUB1       -0.386
      7 C4'        22.9380   21.3460   18.8660 C.3       1 SUB1        0.117
      8 C5'        23.2640   22.7320   19.4010 C.3       1 SUB1        0.094
      9 O5'        24.6380   22.7810   19.8570 O.3       1 SUB1       -0.320
     10 P'         25.3410   24.0820   20.4970 P.3       1 SUB1        0.205
     11 O1P'       25.0900   25.2330   19.5990 O.co2     1 SUB1       -0.535
     12 O2P'       24.7530   24.3060   21.8770 O.co2     1 SUB1       -0.535
     13 O3P'       26.7530   23.6160   20.5740 O.co2     1 SUB1       -0.535
     14 O1         21.0990   20.4540   20.9190 O.3       1 SUB1       -0.365
     15 H11        21.7743   18.7726   20.2748 H         1 SUB1        0.094
     16 H31        21.6543   19.1615   18.1392 H         1 SUB1        0.067
     17 H41        19.4443   20.3850   19.1245 H         1 SUB1        0.210
     18 H51        21.0841   21.9388   18.5065 H         1 SUB1        0.065
     19 H61        22.2121   22.0599   16.6616 H         1 SUB1        0.210
     20 H71        23.7211   21.1744   18.1129 H         1 SUB1        0.065
     21 H81        23.1303   23.4773   18.6032 H         1 SUB1        0.064
     22 H82        22.6026   22.9665   20.2480 H         1 SUB1        0.064
     23 H141       20.2165   20.1050   20.9624 H         1 SUB1        0.213
@<TRIPOS>BOND
     1    1    2 1  
     2    1    3 1  
     3    1   14 1  
     4    2    7 1  
     5    3    4 1  
     6    3    5 1  
     7    5    6 1  
     8    5    7 1  
     9    7    8 1  
    10    8    9 1  
    11    9   10 1  
    12   10   11 2  
    13   10   12 2  
    14   10   13 2  
    15    1   15 1  
    16    3   16 1  
    17    4   17 1  
    18    5   18 1  
    19    6   19 1  
    20    7   20 1  
    21    8   21 1  
    22    8   22 1  
    23   14   23 1  
@<TRIPOS>SUBSTRUCTURE
     1 SUB1        1 GROUP

