1w7x_ligand
  -I-interpret- 

 70 73  0  0  0  0  0  0  0  0999 V2000
    9.6510   39.6130   34.6010 O   0  0  0  0  0
    9.1900   40.0340   33.5440 C   0  0  0  0  0
    7.9250   40.4530   33.4550 N   0  0  0  0  0
    7.0610   40.4800   34.6210 C   0  0  0  0  0
    7.5880   41.5320   35.5400 C   0  0  0  0  0
    8.2140   42.6780   35.0240 C   0  0  0  0  0
    8.7230   43.6650   35.8700 C   0  0  0  0  0
    8.5870   43.5100   37.2490 C   0  0  0  0  0
    7.9750   42.3680   37.7780 C   0  0  0  0  0
    7.4770   41.3760   36.9210 C   0  0  0  0  0
    5.6730   40.9080   34.2600 C   0  0  0  0  0
    5.4660   41.3040   33.0920 O   0  0  0  0  0
    4.7950   40.8510   35.1530 O   0  5  0  0  0
   10.0100   40.1250   32.2890 C   0  0  0  0  0
   11.2010   39.2870   32.3880 N   0  0  0  0  0
   11.9270   38.8260   31.3310 C   0  0  0  0  0
   11.5210   39.0270   30.0090 C   0  0  0  0  0
   12.2880   38.5500   28.9610 C   0  0  0  0  0
   13.1440   38.1660   31.5700 C   0  0  0  0  0
   13.9330   37.6840   30.5240 C   0  0  0  0  0
   13.5020   37.8900   29.2060 C   0  0  0  0  0
   14.2900   37.4000   28.0320 C   0  3  0  0  0
   15.4680   36.7800   28.1850 N   0  0  0  0  0
   13.7730   37.6040   26.8100 N   0  0  0  0  0
   10.3530   41.5620   32.0720 C   0  0  0  0  0
   11.2400   42.2450   32.9100 C   0  0  0  0  0
   11.5280   43.5900   32.7070 C   0  0  0  0  0
   12.4170   44.2590   33.5190 O   0  0  0  0  0
   12.9060   43.6620   34.7290 C   0  0  0  0  0
   10.9350   44.2740   31.6400 C   0  0  0  0  0
   10.0450   43.5980   30.8000 C   0  0  0  0  0
    9.7470   42.2550   31.0060 C   0  0  0  0  0
   11.2460   45.6070   31.4430 O   0  0  0  0  0
   10.4420   46.4910   30.6590 C   0  0  0  0  0
   10.7150   46.3240   29.1780 C   0  0  0  0  0
   11.7710   45.5420   28.7070 C   0  0  0  0  0
   11.9920   45.3980   27.3370 C   0  0  0  0  0
   11.1680   46.0450   26.4160 C   0  0  0  0  0
   10.1120   46.8290   26.8800 C   0  0  0  0  0
    9.8880   46.9780   28.2510 C   0  0  0  0  0
    7.5673   40.7530   32.5707 H   0  0  0  0  0
    7.0464   39.4935   35.1075 H   0  0  0  0  0
    8.3036   42.7984   33.9504 H   0  0  0  0  0
    9.2167   44.5390   35.4608 H   0  0  0  0  0
    8.9580   44.2796   37.9162 H   0  0  0  0  0
    7.8858   42.2501   38.8519 H   0  0  0  0  0
    7.0067   40.4897   37.3314 H   0  0  0  0  0
    9.4085   39.7707   31.4389 H   0  0  0  0  0
   11.5179   39.0231   33.3319 H   0  0  0  0  0
   10.5996   39.5598   29.8034 H   0  0  0  0  0
   11.9480   38.6874   27.9409 H   0  0  0  0  0
   13.4786   38.0276   32.5917 H   0  0  0  0  0
   14.8605   37.1608   30.7269 H   0  0  0  0  0
   15.9890   36.4531   27.3588 H   0  0  0  0  0
   15.8525   36.6304   29.1288 H   0  0  0  0  0
   12.8664   38.0821   26.7076 H   0  0  0  0  0
   14.2829   37.2825   25.9748 H   0  0  0  0  0
   11.7108   41.7171   33.7314 H   0  0  0  0  0
   13.5995   44.3562   35.2261 H   0  0  0  0  0
   13.4327   42.7265   34.4895 H   0  0  0  0  0
   12.0607   43.4458   35.3989 H   0  0  0  0  0
    9.5805   44.1281   29.9764 H   0  0  0  0  0
    9.0519   41.7443   30.3494 H   0  0  0  0  0
   10.6649   47.5285   30.9487 H   0  0  0  0  0
    9.3809   46.2760   30.8532 H   0  0  0  0  0
   12.4253   45.0421   29.4121 H   0  0  0  0  0
   12.8097   44.7790   26.9858 H   0  0  0  0  0
   11.3464   45.9396   25.3520 H   0  0  0  0  0
    9.4599   47.3267   26.1714 H   0  0  0  0  0
    9.0725   47.6010   28.6003 H   0  0  0  0  0
  1  2  2  0  0  0
  2  3  1  0  0  0
  2 14  1  0  0  0
  3  4  1  0  0  0
  4  5  1  0  0  0
  4 11  1  0  0  0
  5  6  4  0  0  0
  5 10  4  0  0  0
  6  7  4  0  0  0
  7  8  4  0  0  0
  8  9  4  0  0  0
  9 10  4  0  0  0
 11 12  2  0  0  0
 11 13  1  0  0  0
 14 15  1  0  0  0
 14 25  1  0  0  0
 15 16  1  0  0  0
 16 17  4  0  0  0
 16 19  4  0  0  0
 17 18  4  0  0  0
 18 21  4  0  0  0
 19 20  4  0  0  0
 20 21  4  0  0  0
 21 22  1  0  0  0
 22 23  1  0  0  0
 22 24  1  0  0  0
 25 26  4  0  0  0
 25 32  4  0  0  0
 26 27  4  0  0  0
 27 28  1  0  0  0
 27 30  4  0  0  0
 28 29  1  0  0  0
 30 31  4  0  0  0
 30 33  1  0  0  0
 31 32  4  0  0  0
 33 34  1  0  0  0
 34 35  1  0  0  0
 35 36  4  0  0  0
 35 40  4  0  0  0
 36 37  4  0  0  0
 37 38  4  0  0  0
 38 39  4  0  0  0
 39 40  4  0  0  0
  3 41  1  0  0  0
  4 42  1  0  0  0
  6 43  1  0  0  0
  7 44  1  0  0  0
  8 45  1  0  0  0
  9 46  1  0  0  0
 10 47  1  0  0  0
 14 48  1  0  0  0
 15 49  1  0  0  0
 17 50  1  0  0  0
 18 51  1  0  0  0
 19 52  1  0  0  0
 20 53  1  0  0  0
 23 54  1  0  0  0
 23 55  1  0  0  0
 24 56  1  0  0  0
 24 57  1  0  0  0
 26 58  1  0  0  0
 29 59  1  0  0  0
 29 60  1  0  0  0
 29 61  1  0  0  0
 31 62  1  0  0  0
 32 63  1  0  0  0
 34 64  1  0  0  0
 34 65  1  0  0  0
 36 66  1  0  0  0
 37 67  1  0  0  0
 38 68  1  0  0  0
 39 69  1  0  0  0
 40 70  1  0  0  0
M  END
$$$$
