### 
### Created by X-TOOL on Mon Oct 24 22:50:13 2005
### 

@<TRIPOS>MOLECULE
1w7x_ligand
   70    73     1     0     0
SMALL
GAST_HUCK


@<TRIPOS>ATOM
      1 O31         9.6510   39.6130   34.6010 O.2       1 SUB1       -0.391
      2 C31         9.1900   40.0340   33.5440 C.2       1 SUB1        0.216
      3 N4          7.9250   40.4530   33.4550 N.am      1 SUB1       -0.255
      4 C23         7.0610   40.4800   34.6210 C.3       1 SUB1        0.115
      5 C24         7.5880   41.5320   35.5400 C.ar      1 SUB1       -0.004
      6 C25         8.2140   42.6780   35.0240 C.ar      1 SUB1       -0.055
      7 C26         8.7230   43.6650   35.8700 C.ar      1 SUB1       -0.068
      8 C27         8.5870   43.5100   37.2490 C.ar      1 SUB1       -0.068
      9 C28         7.9750   42.3680   37.7780 C.ar      1 SUB1       -0.068
     10 C29         7.4770   41.3760   36.9210 C.ar      1 SUB1       -0.055
     11 C30         5.6730   40.9080   34.2600 C.2       1 SUB1        0.064
     12 O30         5.4660   41.3040   33.0920 O.co2     1 SUB1       -0.563
     13 O40         4.7950   40.8510   35.1530 O.co2     1 SUB1       -0.563
     14 C8         10.0100   40.1250   32.2890 C.3       1 SUB1        0.152
     15 N3         11.2010   39.2870   32.3880 N.pl3     1 SUB1       -0.294
     16 C5         11.9270   38.8260   31.3310 C.ar      1 SUB1        0.042
     17 C4         11.5210   39.0270   30.0090 C.ar      1 SUB1       -0.040
     18 C3         12.2880   38.5500   28.9610 C.ar      1 SUB1       -0.019
     19 C6         13.1440   38.1660   31.5700 C.ar      1 SUB1       -0.040
     20 C7         13.9330   37.6840   30.5240 C.ar      1 SUB1       -0.019
     21 C2         13.5020   37.8900   29.2060 C.ar      1 SUB1        0.172
     22 C1         14.2900   37.4000   28.0320 C.cat     1 SUB1        0.309
     23 N2         15.4680   36.7800   28.1850 N.pl3     1 SUB1       -0.202
     24 N1         13.7730   37.6040   26.8100 N.pl3     1 SUB1       -0.202
     25 C9         10.3530   41.5620   32.0720 C.ar      1 SUB1       -0.019
     26 C14        11.2400   42.2450   32.9100 C.ar      1 SUB1       -0.035
     27 C13        11.5280   43.5900   32.7070 C.ar      1 SUB1        0.114
     28 O3         12.4170   44.2590   33.5190 O.3       1 SUB1       -0.326
     29 C15        12.9060   43.6620   34.7290 C.3       1 SUB1        0.057
     30 C12        10.9350   44.2740   31.6400 C.ar      1 SUB1        0.116
     31 C11        10.0450   43.5980   30.8000 C.ar      1 SUB1       -0.047
     32 C10         9.7470   42.2550   31.0060 C.ar      1 SUB1       -0.076
     33 O4         11.2460   45.6070   31.4430 O.3       1 SUB1       -0.313
     34 C16        10.4420   46.4910   30.6590 C.3       1 SUB1        0.100
     35 C17        10.7150   46.3240   29.1780 C.ar      1 SUB1       -0.014
     36 C22        11.7710   45.5420   28.7070 C.ar      1 SUB1       -0.058
     37 C21        11.9920   45.3980   27.3370 C.ar      1 SUB1       -0.068
     38 C20        11.1680   46.0450   26.4160 C.ar      1 SUB1       -0.069
     39 C19        10.1120   46.8290   26.8800 C.ar      1 SUB1       -0.068
     40 C18         9.8880   46.9780   28.2510 C.ar      1 SUB1       -0.058
     41 H31         7.5673   40.7530   32.5707 H         1 SUB1        0.193
     42 H41         7.0464   39.4935   35.1075 H         1 SUB1        0.095
     43 H61         8.3036   42.7984   33.9504 H         1 SUB1        0.056
     44 H71         9.2167   44.5390   35.4608 H         1 SUB1        0.060
     45 H81         8.9580   44.2796   37.9162 H         1 SUB1        0.056
     46 H91         7.8858   42.2501   38.8519 H         1 SUB1        0.060
     47 H101        7.0067   40.4897   37.3314 H         1 SUB1        0.056
     48 H141        9.4085   39.7707   31.4389 H         1 SUB1        0.093
     49 H151       11.5179   39.0231   33.3319 H         1 SUB1        0.181
     50 H171       10.5996   39.5598   29.8034 H         1 SUB1        0.052
     51 H181       11.9480   38.6874   27.9409 H         1 SUB1        0.063
     52 H191       13.4786   38.0276   32.5917 H         1 SUB1        0.052
     53 H201       14.8605   37.1608   30.7269 H         1 SUB1        0.063
     54 H231       15.9890   36.4531   27.3588 H         1 SUB1        0.192
     55 H232       15.8525   36.6304   29.1288 H         1 SUB1        0.192
     56 H241       12.8664   38.0821   26.7076 H         1 SUB1        0.192
     57 H242       14.2829   37.2825   25.9748 H         1 SUB1        0.192
     58 H261       11.7108   41.7171   33.7314 H         1 SUB1        0.045
     59 H291       13.5995   44.3562   35.2261 H         1 SUB1        0.057
     60 H292       13.4327   42.7265   34.4895 H         1 SUB1        0.057
     61 H293       12.0607   43.4458   35.3989 H         1 SUB1        0.057
     62 H311        9.5805   44.1281   29.9764 H         1 SUB1        0.049
     63 H321        9.0519   41.7443   30.3494 H         1 SUB1        0.044
     64 H341       10.6649   47.5285   30.9487 H         1 SUB1        0.077
     65 H342        9.3809   46.2760   30.8532 H         1 SUB1        0.077
     66 H361       12.4253   45.0421   29.4121 H         1 SUB1        0.056
     67 H371       12.8097   44.7790   26.9858 H         1 SUB1        0.060
     68 H381       11.3464   45.9396   25.3520 H         1 SUB1        0.056
     69 H391        9.4599   47.3267   26.1714 H         1 SUB1        0.060
     70 H401        9.0725   47.6010   28.6003 H         1 SUB1        0.056
@<TRIPOS>BOND
     1    1    2 2  
     2    2    3 am 
     3    2   14 1  
     4    3    4 1  
     5    4    5 1  
     6    4   11 1  
     7    5    6 ar 
     8    5   10 ar 
     9    6    7 ar 
    10    7    8 ar 
    11    8    9 ar 
    12    9   10 ar 
    13   11   12 2  
    14   11   13 2  
    15   14   15 1  
    16   14   25 1  
    17   15   16 1  
    18   16   17 ar 
    19   16   19 ar 
    20   17   18 ar 
    21   18   21 ar 
    22   19   20 ar 
    23   20   21 ar 
    24   21   22 1  
    25   22   23 1  
    26   22   24 1  
    27   25   26 ar 
    28   25   32 ar 
    29   26   27 ar 
    30   27   28 1  
    31   27   30 ar 
    32   28   29 1  
    33   30   31 ar 
    34   30   33 1  
    35   31   32 ar 
    36   33   34 1  
    37   34   35 1  
    38   35   36 ar 
    39   35   40 ar 
    40   36   37 ar 
    41   37   38 ar 
    42   38   39 ar 
    43   39   40 ar 
    44    3   41 1  
    45    4   42 1  
    46    6   43 1  
    47    7   44 1  
    48    8   45 1  
    49    9   46 1  
    50   10   47 1  
    51   14   48 1  
    52   15   49 1  
    53   17   50 1  
    54   18   51 1  
    55   19   52 1  
    56   20   53 1  
    57   23   54 1  
    58   23   55 1  
    59   24   56 1  
    60   24   57 1  
    61   26   58 1  
    62   29   59 1  
    63   29   60 1  
    64   29   61 1  
    65   31   62 1  
    66   32   63 1  
    67   34   64 1  
    68   34   65 1  
    69   36   66 1  
    70   37   67 1  
    71   38   68 1  
    72   39   69 1  
    73   40   70 1  
@<TRIPOS>SUBSTRUCTURE
     1 SUB1        1 GROUP

