### 
### Created by X-TOOL on Sun Jun  3 11:51:50 2007
### 

@<TRIPOS>MOLECULE
2aog_ligand
  123   122     1     0     0
SMALL
GAST_HUCK


@<TRIPOS>ATOM
      1 C          23.4090   24.3380   19.8370 C.2       1 SUB1        0.175
      2 O          22.9580   24.7500   20.9100 O.2       1 SUB1       -0.397
      3 CH3        24.0730   23.0180   19.6860 C.3       1 SUB1        0.026
      4 N          23.3340   25.1010   18.7410 N.am      1 SUB1       -0.264
      5 CA         22.7820   26.4170   18.7280 C.3       1 SUB1        0.156
      6 C          21.3940   26.5210   18.0600 C.2       1 SUB1        0.206
      7 O          20.7730   27.5990   18.1710 O.2       1 SUB1       -0.394
      8 CB         23.7180   27.4060   18.0150 C.3       1 SUB1        0.092
      9 OG1        23.8990   26.9760   16.6590 O.3       1 SUB1       -0.387
     10 CG2        25.0840   27.4940   18.7170 C.3       1 SUB1       -0.035
     11 N          20.9160   25.4820   17.4120 N.am      1 SUB1       -0.263
     12 CA         19.6290   25.5180   16.7320 C.3       1 SUB1        0.133
     13 C          18.7620   24.4610   17.3580 C.2       1 SUB1        0.202
     14 O          18.7270   23.3020   16.8930 O.2       1 SUB1       -0.394
     15 CB         19.7760   25.3160   15.2160 C.3       1 SUB1       -0.004
     16 CG1        20.8930   26.1790   14.6010 C.3       1 SUB1       -0.049
     17 CG2        18.4710   25.5010   14.5110 C.3       1 SUB1       -0.058
     18 CD1        20.6560   27.6730   14.6740 C.3       1 SUB1       -0.065
     19 N          18.0930   24.7630   18.4100 N.am      1 SUB1       -0.277
     20 CA         17.2900   23.8120   19.1680 C.3       1 SUB1        0.082
     21 C          15.7930   23.9200   18.8920 C.3       1 SUB1       -0.008
     22 CB         17.5910   23.9840   20.6610 C.3       1 SUB1       -0.025
     23 CG         19.0510   24.0060   21.0530 C.3       1 SUB1       -0.051
     24 CD         19.7750   22.7310   20.7080 C.3       1 SUB1       -0.056
     25 CE         19.1800   21.4920   21.3350 C.3       1 SUB1       -0.065
     26 N          15.4740   23.7520   17.5080 N.4       1 SUB1        0.248
     27 CA         14.2570   23.0180   17.1030 C.3       1 SUB1        0.067
     28 C          14.2740   21.6000   17.5980 C.2       1 SUB1        0.227
     29 O          15.2960   20.8920   17.5240 O.2       1 SUB1       -0.391
     30 CB         14.1960   22.9420   15.5960 C.3       1 SUB1        0.008
     31 CG         12.9430   22.4340   14.9470 C.3       1 SUB1       -0.046
     32 CD         13.1020   21.0100   14.4430 C.3       1 SUB1       -0.056
     33 CE         14.2020   20.8320   13.4250 C.3       1 SUB1       -0.065
     34 N          13.1400   21.1090   18.0520 N.am      1 SUB1       -0.261
     35 CA         13.0220   19.7230   18.4990 C.3       1 SUB1        0.133
     36 C          11.6150   19.2450   18.1490 C.2       1 SUB1        0.204
     37 O          10.6170   19.9110   18.4430 O.2       1 SUB1       -0.394
     38 CB         13.3860   19.5640   19.9510 C.3       1 SUB1        0.004
     39 CG         13.1930   18.1750   20.5100 C.3       1 SUB1        0.041
     40 CD         11.7850   17.8930   20.9980 C.2       1 SUB1        0.174
     41 OE1        11.0950   18.7940   21.3860 O.2       1 SUB1       -0.397
     42 NE2        11.3560   16.6490   20.9500 N.am      1 SUB1       -0.301
     43 N          11.5370   18.0240   17.6610 N.am      1 SUB1       -0.264
     44 CA         10.2990   17.4130   17.2790 C.3       1 SUB1        0.131
     45 C          10.1980   16.0410   17.9470 C.2       1 SUB1        0.199
     46 O          11.1370   15.2490   17.9860 O.2       1 SUB1       -0.395
     47 CB         10.2390   17.1850   15.7790 C.3       1 SUB1       -0.009
     48 CG         10.1700   18.4620   14.9970 C.3       1 SUB1       -0.016
     49 CD         10.3350   18.2120   13.5210 C.3       1 SUB1        0.063
     50 NE          9.7860   19.3600   12.7800 N.pl3     1 SUB1       -0.272
     51 CZ          9.5980   19.3840   11.4910 C.cat     1 SUB1        0.288
     52 NH1         9.9970   18.3230   10.7800 N.pl3     1 SUB1       -0.285
     53 NH2         9.0520   20.4440   10.8900 N.pl3     1 SUB1       -0.285
     54 N           8.9430   15.7370   18.4710 N.am      1 SUB1       -0.299
     55 H          24.9471   22.9759   20.3359 H         1 SUB1        0.047
     56 H          23.3749   22.2278   19.9623 H         1 SUB1        0.047
     57 H          24.3826   22.8849   18.6494 H         1 SUB1        0.047
     58 H          23.6916   24.7207   17.8647 H         1 SUB1        0.188
     59 H          22.6671   26.6681   19.7824 H         1 SUB1        0.083
     60 H          23.2648   28.3969   18.0434 H         1 SUB1        0.064
     61 H          24.4829   27.5884   16.2055 H         1 SUB1        0.210
     62 H          25.5593   26.5131   18.7084 H         1 SUB1        0.026
     63 H          25.7158   28.2099   18.1913 H         1 SUB1        0.026
     64 H          24.9414   27.8211   19.7469 H         1 SUB1        0.026
     65 H          21.4646   24.6225   17.3846 H         1 SUB1        0.188
     66 H          19.1689   26.4991   16.8500 H         1 SUB1        0.080
     67 H          20.0847   24.2810   15.0693 H         1 SUB1        0.034
     68 H          20.9475   25.9190   13.5439 H         1 SUB1        0.027
     69 H          21.7998   25.9747   15.1702 H         1 SUB1        0.027
     70 H          17.7497   24.7762   14.8884 H         1 SUB1        0.023
     71 H          18.1019   26.5106   14.6915 H         1 SUB1        0.023
     72 H          18.6131   25.3506   13.4408 H         1 SUB1        0.023
     73 H          19.7380   27.9204   14.1409 H         1 SUB1        0.023
     74 H          20.5643   27.9745   15.7175 H         1 SUB1        0.023
     75 H          21.4958   28.1956   14.2160 H         1 SUB1        0.023
     76 H          18.1251   25.7289   18.7363 H         1 SUB1        0.186
     77 H          17.5699   22.8107   18.8407 H         1 SUB1        0.061
     78 H          15.4682   24.9163   19.1920 H         1 SUB1        0.084
     79 H          15.2917   23.1289   19.4496 H         1 SUB1        0.084
     80 H          17.1563   23.1177   21.1596 H         1 SUB1        0.029
     81 H          17.1872   24.9568   20.9415 H         1 SUB1        0.029
     82 H          19.1016   24.1333   22.1344 H         1 SUB1        0.027
     83 H          19.5291   24.8172   20.5039 H         1 SUB1        0.027
     84 H          20.7925   22.8263   21.0870 H         1 SUB1        0.026
     85 H          19.7107   22.6070   19.6270 H         1 SUB1        0.026
     86 H          19.2018   21.5893   22.4204 H         1 SUB1        0.023
     87 H          18.1493   21.3760   21.0000 H         1 SUB1        0.023
     88 H          19.7611   20.6199   21.0354 H         1 SUB1        0.023
     89 H          16.2410   23.1894   17.1398 H         1 SUB1        0.204
     90 H          15.3195   24.7014   17.1687 H         1 SUB1        0.204
     91 H          13.4055   23.5514   17.5256 H         1 SUB1        0.110
     92 H          14.9682   22.2245   15.3184 H         1 SUB1        0.035
     93 H          14.2905   23.9738   15.2576 H         1 SUB1        0.035
     94 H          12.7163   23.0745   14.0946 H         1 SUB1        0.027
     95 H          12.1450   22.4462   15.6894 H         1 SUB1        0.027
     96 H          12.1663   20.7352   13.9561 H         1 SUB1        0.026
     97 H          13.3574   20.3914   15.3034 H         1 SUB1        0.026
     98 H          13.9963   21.4578   12.5565 H         1 SUB1        0.023
     99 H          15.1549   21.1233   13.8669 H         1 SUB1        0.023
    100 H          14.2464   19.7868   13.1190 H         1 SUB1        0.023
    101 H          12.3197   21.7139   18.0929 H         1 SUB1        0.189
    102 H          13.7413   19.0867   17.9834 H         1 SUB1        0.080
    103 H          12.7263   20.2239   20.5144 H         1 SUB1        0.034
    104 H          14.4486   19.7918   20.0354 H         1 SUB1        0.034
    105 H          13.8571   18.0783   21.3689 H         1 SUB1        0.050
    106 H          13.4015   17.4715   19.7040 H         1 SUB1        0.050
    107 H          10.4069   16.4249   21.2491 H         1 SUB1        0.181
    108 H          11.9728   15.9095   20.6137 H         1 SUB1        0.181
    109 H          12.3981   17.4887   17.5500 H         1 SUB1        0.188
    110 H           9.4888   18.0759   17.5827 H         1 SUB1        0.080
    111 H           9.3353   16.6144   15.5649 H         1 SUB1        0.031
    112 H          11.1498   16.6634   15.4849 H         1 SUB1        0.031
    113 H          10.9763   19.1156   15.3297 H         1 SUB1        0.030
    114 H           9.1941   18.9179   15.1639 H         1 SUB1        0.030
    115 H           9.8040   17.3028   13.2391 H         1 SUB1        0.069
    116 H          11.3918   18.0905   13.2832 H         1 SUB1        0.069
    117 H           9.5358   20.1934   13.3123 H         1 SUB1        0.264
    118 H          10.4328   17.5292   11.2494 H         1 SUB1        0.262
    119 H           9.8653   18.3080    9.7686 H         1 SUB1        0.262
    120 H           8.7733   21.2555   11.4415 H         1 SUB1        0.262
    121 H           8.9136   20.4422    9.8794 H         1 SUB1        0.262
    122 H           8.7784   14.8295   18.9066 H         1 SUB1        0.182
    123 H           8.1890   16.4220   18.4189 H         1 SUB1        0.182
@<TRIPOS>BOND
     1    1    2 2  
     2    1    3 1  
     3    1    4 am 
     4    4    5 1  
     5    5    6 1  
     6    5    8 1  
     7    6    7 2  
     8    6   11 am 
     9    8    9 1  
    10    8   10 1  
    11   11   12 1  
    12   12   13 1  
    13   12   15 1  
    14   13   14 2  
    15   13   19 am 
    16   15   16 1  
    17   15   17 1  
    18   16   18 1  
    19   19   20 1  
    20   20   21 1  
    21   20   22 1  
    22   21   26 1  
    23   22   23 1  
    24   23   24 1  
    25   24   25 1  
    26   26   27 1  
    27   27   28 1  
    28   27   30 1  
    29   28   29 2  
    30   28   34 am 
    31   30   31 1  
    32   31   32 1  
    33   32   33 1  
    34   34   35 1  
    35   35   36 1  
    36   35   38 1  
    37   36   37 2  
    38   36   43 am 
    39   38   39 1  
    40   39   40 1  
    41   40   41 2  
    42   40   42 am 
    43   43   44 1  
    44   44   45 1  
    45   44   47 1  
    46   45   46 2  
    47   45   54 am 
    48   47   48 1  
    49   48   49 1  
    50   49   50 1  
    51   50   51 1  
    52   51   52 1  
    53   51   53 1  
    54    3   55 1  
    55    3   56 1  
    56    3   57 1  
    57    4   58 1  
    58    5   59 1  
    59    8   60 1  
    60    9   61 1  
    61   10   62 1  
    62   10   63 1  
    63   10   64 1  
    64   11   65 1  
    65   12   66 1  
    66   15   67 1  
    67   16   68 1  
    68   16   69 1  
    69   17   70 1  
    70   17   71 1  
    71   17   72 1  
    72   18   73 1  
    73   18   74 1  
    74   18   75 1  
    75   19   76 1  
    76   20   77 1  
    77   21   78 1  
    78   21   79 1  
    79   22   80 1  
    80   22   81 1  
    81   23   82 1  
    82   23   83 1  
    83   24   84 1  
    84   24   85 1  
    85   25   86 1  
    86   25   87 1  
    87   25   88 1  
    88   26   89 1  
    89   26   90 1  
    90   27   91 1  
    91   30   92 1  
    92   30   93 1  
    93   31   94 1  
    94   31   95 1  
    95   32   96 1  
    96   32   97 1  
    97   33   98 1  
    98   33   99 1  
    99   33  100 1  
   100   34  101 1  
   101   35  102 1  
   102   38  103 1  
   103   38  104 1  
   104   39  105 1  
   105   39  106 1  
   106   42  107 1  
   107   42  108 1  
   108   43  109 1  
   109   44  110 1  
   110   47  111 1  
   111   47  112 1  
   112   48  113 1  
   113   48  114 1  
   114   49  115 1  
   115   49  116 1  
   116   50  117 1  
   117   52  118 1  
   118   52  119 1  
   119   53  120 1  
   120   53  121 1  
   121   54  122 1  
   122   54  123 1  
@<TRIPOS>SUBSTRUCTURE
     1 SUB1        1 GROUP

