2aog_ligand
  -I-interpret- 

123122  0  0  0  0  0  0  0  0999 V2000
   23.4090   24.3380   19.8370 C   0  0  0  0  0
   22.9580   24.7500   20.9100 O   0  0  0  0  0
   24.0730   23.0180   19.6860 C   0  0  0  0  0
   23.3340   25.1010   18.7410 N   0  0  0  0  0
   22.7820   26.4170   18.7280 C   0  0  0  0  0
   21.3940   26.5210   18.0600 C   0  0  0  0  0
   20.7730   27.5990   18.1710 O   0  0  0  0  0
   23.7180   27.4060   18.0150 C   0  0  0  0  0
   23.8990   26.9760   16.6590 O   0  0  0  0  0
   25.0840   27.4940   18.7170 C   0  0  0  0  0
   20.9160   25.4820   17.4120 N   0  0  0  0  0
   19.6290   25.5180   16.7320 C   0  0  0  0  0
   18.7620   24.4610   17.3580 C   0  0  0  0  0
   18.7270   23.3020   16.8930 O   0  0  0  0  0
   19.7760   25.3160   15.2160 C   0  0  0  0  0
   20.8930   26.1790   14.6010 C   0  0  0  0  0
   18.4710   25.5010   14.5110 C   0  0  0  0  0
   20.6560   27.6730   14.6740 C   0  0  0  0  0
   18.0930   24.7630   18.4100 N   0  0  0  0  0
   17.2900   23.8120   19.1680 C   0  0  0  0  0
   15.7930   23.9200   18.8920 C   0  0  0  0  0
   17.5910   23.9840   20.6610 C   0  0  0  0  0
   19.0510   24.0060   21.0530 C   0  0  0  0  0
   19.7750   22.7310   20.7080 C   0  0  0  0  0
   19.1800   21.4920   21.3350 C   0  0  0  0  0
   15.4740   23.7520   17.5080 N   0  3  0  0  0
   14.2570   23.0180   17.1030 C   0  0  0  0  0
   14.2740   21.6000   17.5980 C   0  0  0  0  0
   15.2960   20.8920   17.5240 O   0  0  0  0  0
   14.1960   22.9420   15.5960 C   0  0  0  0  0
   12.9430   22.4340   14.9470 C   0  0  0  0  0
   13.1020   21.0100   14.4430 C   0  0  0  0  0
   14.2020   20.8320   13.4250 C   0  0  0  0  0
   13.1400   21.1090   18.0520 N   0  0  0  0  0
   13.0220   19.7230   18.4990 C   0  0  0  0  0
   11.6150   19.2450   18.1490 C   0  0  0  0  0
   10.6170   19.9110   18.4430 O   0  0  0  0  0
   13.3860   19.5640   19.9510 C   0  0  0  0  0
   13.1930   18.1750   20.5100 C   0  0  0  0  0
   11.7850   17.8930   20.9980 C   0  0  0  0  0
   11.0950   18.7940   21.3860 O   0  0  0  0  0
   11.3560   16.6490   20.9500 N   0  0  0  0  0
   11.5370   18.0240   17.6610 N   0  0  0  0  0
   10.2990   17.4130   17.2790 C   0  0  0  0  0
   10.1980   16.0410   17.9470 C   0  0  0  0  0
   11.1370   15.2490   17.9860 O   0  0  0  0  0
   10.2390   17.1850   15.7790 C   0  0  0  0  0
   10.1700   18.4620   14.9970 C   0  0  0  0  0
   10.3350   18.2120   13.5210 C   0  0  0  0  0
    9.7860   19.3600   12.7800 N   0  0  0  0  0
    9.5980   19.3840   11.4910 C   0  3  0  0  0
    9.9970   18.3230   10.7800 N   0  0  0  0  0
    9.0520   20.4440   10.8900 N   0  0  0  0  0
    8.9430   15.7370   18.4710 N   0  0  0  0  0
   24.9471   22.9759   20.3359 H   0  0  0  0  0
   23.3749   22.2278   19.9623 H   0  0  0  0  0
   24.3826   22.8849   18.6494 H   0  0  0  0  0
   23.6916   24.7207   17.8647 H   0  0  0  0  0
   22.6671   26.6681   19.7824 H   0  0  0  0  0
   23.2648   28.3969   18.0434 H   0  0  0  0  0
   24.4829   27.5884   16.2055 H   0  0  0  0  0
   25.5593   26.5131   18.7084 H   0  0  0  0  0
   25.7158   28.2099   18.1913 H   0  0  0  0  0
   24.9414   27.8211   19.7469 H   0  0  0  0  0
   21.4646   24.6225   17.3846 H   0  0  0  0  0
   19.1689   26.4991   16.8500 H   0  0  0  0  0
   20.0847   24.2810   15.0693 H   0  0  0  0  0
   20.9475   25.9190   13.5439 H   0  0  0  0  0
   21.7998   25.9747   15.1702 H   0  0  0  0  0
   17.7497   24.7762   14.8884 H   0  0  0  0  0
   18.1019   26.5106   14.6915 H   0  0  0  0  0
   18.6131   25.3506   13.4408 H   0  0  0  0  0
   19.7380   27.9204   14.1409 H   0  0  0  0  0
   20.5643   27.9745   15.7175 H   0  0  0  0  0
   21.4958   28.1956   14.2160 H   0  0  0  0  0
   18.1251   25.7289   18.7363 H   0  0  0  0  0
   17.5699   22.8107   18.8407 H   0  0  0  0  0
   15.4682   24.9163   19.1920 H   0  0  0  0  0
   15.2917   23.1289   19.4496 H   0  0  0  0  0
   17.1563   23.1177   21.1596 H   0  0  0  0  0
   17.1872   24.9568   20.9415 H   0  0  0  0  0
   19.1016   24.1333   22.1344 H   0  0  0  0  0
   19.5291   24.8172   20.5039 H   0  0  0  0  0
   20.7925   22.8263   21.0870 H   0  0  0  0  0
   19.7107   22.6070   19.6270 H   0  0  0  0  0
   19.2018   21.5893   22.4204 H   0  0  0  0  0
   18.1493   21.3760   21.0000 H   0  0  0  0  0
   19.7611   20.6199   21.0354 H   0  0  0  0  0
   16.2410   23.1894   17.1398 H   0  0  0  0  0
   15.3195   24.7014   17.1687 H   0  0  0  0  0
   13.4055   23.5514   17.5256 H   0  0  0  0  0
   14.9682   22.2245   15.3184 H   0  0  0  0  0
   14.2905   23.9738   15.2576 H   0  0  0  0  0
   12.7163   23.0745   14.0946 H   0  0  0  0  0
   12.1450   22.4462   15.6894 H   0  0  0  0  0
   12.1663   20.7352   13.9561 H   0  0  0  0  0
   13.3574   20.3914   15.3034 H   0  0  0  0  0
   13.9963   21.4578   12.5565 H   0  0  0  0  0
   15.1549   21.1233   13.8669 H   0  0  0  0  0
   14.2464   19.7868   13.1190 H   0  0  0  0  0
   12.3197   21.7139   18.0929 H   0  0  0  0  0
   13.7413   19.0867   17.9834 H   0  0  0  0  0
   12.7263   20.2239   20.5144 H   0  0  0  0  0
   14.4486   19.7918   20.0354 H   0  0  0  0  0
   13.8571   18.0783   21.3689 H   0  0  0  0  0
   13.4015   17.4715   19.7040 H   0  0  0  0  0
   10.4069   16.4249   21.2491 H   0  0  0  0  0
   11.9728   15.9095   20.6137 H   0  0  0  0  0
   12.3981   17.4887   17.5500 H   0  0  0  0  0
    9.4888   18.0759   17.5827 H   0  0  0  0  0
    9.3353   16.6144   15.5649 H   0  0  0  0  0
   11.1498   16.6634   15.4849 H   0  0  0  0  0
   10.9763   19.1156   15.3297 H   0  0  0  0  0
    9.1941   18.9179   15.1639 H   0  0  0  0  0
    9.8040   17.3028   13.2391 H   0  0  0  0  0
   11.3918   18.0905   13.2832 H   0  0  0  0  0
    9.5358   20.1934   13.3123 H   0  0  0  0  0
   10.4328   17.5292   11.2494 H   0  0  0  0  0
    9.8653   18.3080    9.7686 H   0  0  0  0  0
    8.7733   21.2555   11.4415 H   0  0  0  0  0
    8.9136   20.4422    9.8794 H   0  0  0  0  0
    8.7784   14.8295   18.9066 H   0  0  0  0  0
    8.1890   16.4220   18.4189 H   0  0  0  0  0
  1  2  2  0  0  0
  1  3  1  0  0  0
  1  4  1  0  0  0
  4  5  1  0  0  0
  5  6  1  0  0  0
  5  8  1  0  0  0
  6  7  2  0  0  0
  6 11  1  0  0  0
  8  9  1  0  0  0
  8 10  1  0  0  0
 11 12  1  0  0  0
 12 13  1  0  0  0
 12 15  1  0  0  0
 13 14  2  0  0  0
 13 19  1  0  0  0
 15 16  1  0  0  0
 15 17  1  0  0  0
 16 18  1  0  0  0
 19 20  1  0  0  0
 20 21  1  0  0  0
 20 22  1  0  0  0
 21 26  1  0  0  0
 22 23  1  0  0  0
 23 24  1  0  0  0
 24 25  1  0  0  0
 26 27  1  0  0  0
 27 28  1  0  0  0
 27 30  1  0  0  0
 28 29  2  0  0  0
 28 34  1  0  0  0
 30 31  1  0  0  0
 31 32  1  0  0  0
 32 33  1  0  0  0
 34 35  1  0  0  0
 35 36  1  0  0  0
 35 38  1  0  0  0
 36 37  2  0  0  0
 36 43  1  0  0  0
 38 39  1  0  0  0
 39 40  1  0  0  0
 40 41  2  0  0  0
 40 42  1  0  0  0
 43 44  1  0  0  0
 44 45  1  0  0  0
 44 47  1  0  0  0
 45 46  2  0  0  0
 45 54  1  0  0  0
 47 48  1  0  0  0
 48 49  1  0  0  0
 49 50  1  0  0  0
 50 51  1  0  0  0
 51 52  1  0  0  0
 51 53  1  0  0  0
  3 55  1  0  0  0
  3 56  1  0  0  0
  3 57  1  0  0  0
  4 58  1  0  0  0
  5 59  1  0  0  0
  8 60  1  0  0  0
  9 61  1  0  0  0
 10 62  1  0  0  0
 10 63  1  0  0  0
 10 64  1  0  0  0
 11 65  1  0  0  0
 12 66  1  0  0  0
 15 67  1  0  0  0
 16 68  1  0  0  0
 16 69  1  0  0  0
 17 70  1  0  0  0
 17 71  1  0  0  0
 17 72  1  0  0  0
 18 73  1  0  0  0
 18 74  1  0  0  0
 18 75  1  0  0  0
 19 76  1  0  0  0
 20 77  1  0  0  0
 21 78  1  0  0  0
 21 79  1  0  0  0
 22 80  1  0  0  0
 22 81  1  0  0  0
 23 82  1  0  0  0
 23 83  1  0  0  0
 24 84  1  0  0  0
 24 85  1  0  0  0
 25 86  1  0  0  0
 25 87  1  0  0  0
 25 88  1  0  0  0
 26 89  1  0  0  0
 26 90  1  0  0  0
 27 91  1  0  0  0
 30 92  1  0  0  0
 30 93  1  0  0  0
 31 94  1  0  0  0
 31 95  1  0  0  0
 32 96  1  0  0  0
 32 97  1  0  0  0
 33 98  1  0  0  0
 33 99  1  0  0  0
 33100  1  0  0  0
 34101  1  0  0  0
 35102  1  0  0  0
 38103  1  0  0  0
 38104  1  0  0  0
 39105  1  0  0  0
 39106  1  0  0  0
 42107  1  0  0  0
 42108  1  0  0  0
 43109  1  0  0  0
 44110  1  0  0  0
 47111  1  0  0  0
 47112  1  0  0  0
 48113  1  0  0  0
 48114  1  0  0  0
 49115  1  0  0  0
 49116  1  0  0  0
 50117  1  0  0  0
 52118  1  0  0  0
 52119  1  0  0  0
 53120  1  0  0  0
 53121  1  0  0  0
 54122  1  0  0  0
 54123  1  0  0  0
M  END
$$$$
