1ajn_ligand
  -I-interpret- 

 19 19  0  0  0  0  0  0  0  0999 V2000
   13.9920   37.8040   36.4180 C   0  0  0  0  0
   13.8720   36.3160   36.0350 C   0  0  0  0  0
   12.8420   36.0860   34.9540 C   0  0  0  0  0
   13.0210   36.6710   33.7170 C   0  0  0  0  0
   11.9730   36.5260   32.8230 C   0  0  0  0  0
   10.8990   35.7310   33.1130 C   0  0  0  0  0
   10.1470   35.5500   32.3480 N   0  0  0  0  0
   10.4890   36.2740   31.1760 O   0  0  0  0  0
    9.0250   34.7280   32.6160 O   0  0  0  0  0
   10.7210   35.0520   34.3140 C   0  0  0  0  0
   11.7420   35.2890   35.2320 C   0  0  0  0  0
   14.6010   38.1410   37.4320 O   0  0  0  0  0
   13.5040   38.7610   35.8060 O   0  5  0  0  0
   13.5823   35.7426   36.9279 H   0  0  0  0  0
   14.8493   35.9633   35.6738 H   0  0  0  0  0
   13.9256   37.2105   33.4609 H   0  0  0  0  0
   12.0049   37.0525   31.8760 H   0  0  0  0  0
    9.8748   34.4049   34.5150 H   0  0  0  0  0
   11.6730   34.8281   36.2107 H   0  0  0  0  0
  1 13  1  0  0  0
  1 12  2  0  0  0
  1  2  1  0  0  0
  2  3  1  0  0  0
  3 11  4  0  0  0
  3  4  4  0  0  0
  4  5  4  0  0  0
  5  6  4  0  0  0
  6 10  4  0  0  0
  6  7  1  0  0  0
  7  9  2  0  0  0
  7  8  2  0  0  0
 10 11  4  0  0  0
  2 14  1  0  0  0
  2 15  1  0  0  0
  4 16  1  0  0  0
  5 17  1  0  0  0
 10 18  1  0  0  0
 11 19  1  0  0  0
M  END
$$$$
