2aou_ligand
  -I-interpret- 

 47 49  0  0  0  0  0  0  0  0999 V2000
   53.0060   -5.0200   36.6160 C   0  0  0  0  0
   52.0880   -4.6520   35.5600 C   0  0  0  0  0
   51.8960   -5.5390   34.4320 C   0  0  0  0  0
   52.6270   -6.7900   34.3590 C   0  0  0  0  0
   53.5510   -7.1500   35.4350 C   0  0  0  0  0
   53.7320   -6.2600   36.5550 C   0  0  0  0  0
   52.4820   -7.7080   33.2470 C   0  0  0  0  0
   53.2650   -8.9400   33.2630 C   0  0  0  0  0
   54.1470   -9.2070   34.3510 C   0  0  0  0  0
   54.2820   -8.3310   35.4110 N   0  0  0  0  0
   53.2780   -4.0030   37.9660 Cl  0  0  0  0  0
   51.5570   -7.3920   32.1290 N   0  0  0  0  0
   51.7620   -7.9990   30.8030 C   0  0  0  0  0
   52.2390   -7.1460   29.7490 C   0  0  0  0  0
   52.3870   -7.6880   28.4230 C   0  0  0  0  0
   52.0850   -9.0710   28.1240 C   0  0  0  0  0
   51.6220   -9.9360   29.2160 C   0  0  0  0  0
   51.4580   -9.3700   30.5100 C   0  0  0  0  0
   52.2610   -9.5310   26.6840 O   0  0  0  0  0
   51.5420  -11.3140   28.6290 C   0  0  0  0  0
   52.4700  -12.4260   28.6670 N   0  0  0  0  0
   52.6450  -12.4780   27.2420 C   0  0  0  0  0
   52.1520  -13.0520   25.9320 C   0  0  0  0  0
   51.6370  -13.4900   29.1610 C   0  0  0  0  0
   50.9020  -14.3070   30.2070 C   0  0  0  0  0
   51.5456   -3.7150   35.6132 H   0  0  0  0  0
   51.2056   -5.2682   33.6414 H   0  0  0  0  0
   54.4165   -6.5260   37.3524 H   0  0  0  0  0
   53.1760   -9.6505   32.4492 H   0  0  0  0  0
   54.7276  -10.1224   34.3465 H   0  0  0  0  0
   50.7693   -6.7461   32.2815 H   0  0  0  0  0
   52.4839   -6.1092   29.9494 H   0  0  0  0  0
   52.7348   -7.0410   27.6258 H   0  0  0  0  0
   51.0874  -10.0015   31.3093 H   0  0  0  0  0
   52.5688   -8.8038   26.1558 H   0  0  0  0  0
   51.3953  -11.1324   27.5541 H   0  0  0  0  0
   50.6189  -11.7288   29.0601 H   0  0  0  0  0
   53.6969  -12.7968   27.1977 H   0  0  0  0  0
   52.5769  -11.4050   27.0094 H   0  0  0  0  0
   52.7696  -12.6666   25.1073 H   0  0  0  0  0
   51.1040  -12.7575   25.7739 H   0  0  0  0  0
   52.2240  -14.1492   25.9622 H   0  0  0  0  0
   52.2162  -14.3201   28.7303 H   0  0  0  0  0
   50.7658  -13.2809   28.5228 H   0  0  0  0  0
   50.3752  -15.1398   29.7182 H   0  0  0  0  0
   50.1737  -13.6672   30.7268 H   0  0  0  0  0
   51.6241  -14.7064   30.9343 H   0  0  0  0  0
  1  2  4  0  0  0
  1  6  4  0  0  0
  1 11  1  0  0  0
  2  3  4  0  0  0
  3  4  4  0  0  0
  4  5  4  0  0  0
  4  7  4  0  0  0
  5  6  4  0  0  0
  5 10  4  0  0  0
  7  8  4  0  0  0
  7 12  1  0  0  0
  8  9  4  0  0  0
  9 10  4  0  0  0
 12 13  1  0  0  0
 13 14  4  0  0  0
 13 18  4  0  0  0
 14 15  4  0  0  0
 15 16  4  0  0  0
 16 17  4  0  0  0
 16 19  1  0  0  0
 17 18  4  0  0  0
 17 20  1  0  0  0
 20 21  1  0  0  0
 21 22  1  0  0  0
 21 24  1  0  0  0
 22 23  1  0  0  0
 24 25  1  0  0  0
  2 26  1  0  0  0
  3 27  1  0  0  0
  6 28  1  0  0  0
  8 29  1  0  0  0
  9 30  1  0  0  0
 12 31  1  0  0  0
 14 32  1  0  0  0
 15 33  1  0  0  0
 18 34  1  0  0  0
 19 35  1  0  0  0
 20 36  1  0  0  0
 20 37  1  0  0  0
 22 38  1  0  0  0
 22 39  1  0  0  0
 23 40  1  0  0  0
 23 41  1  0  0  0
 23 42  1  0  0  0
 24 43  1  0  0  0
 24 44  1  0  0  0
 25 45  1  0  0  0
 25 46  1  0  0  0
 25 47  1  0  0  0
M  END
$$$$
