### 
### Created by X-TOOL on Tue Oct 25 02:03:14 2005
### 

@<TRIPOS>MOLECULE
2aou_ligand
   47    49     1     0     0
SMALL
GAST_HUCK


@<TRIPOS>ATOM
      1 C1         53.0060   -5.0200   36.6160 C.ar      1 SUB1        0.043
      2 C2         52.0880   -4.6520   35.5600 C.ar      1 SUB1       -0.045
      3 C3         51.8960   -5.5390   34.4320 C.ar      1 SUB1       -0.046
      4 C4         52.6270   -6.7900   34.3590 C.ar      1 SUB1        0.034
      5 C5         53.5510   -7.1500   35.4350 C.ar      1 SUB1        0.032
      6 C6         53.7320   -6.2600   36.5550 C.ar      1 SUB1       -0.032
      7 C7         52.4820   -7.7080   33.2470 C.ar      1 SUB1        0.089
      8 C8         53.2650   -8.9400   33.2630 C.ar      1 SUB1       -0.014
      9 C9         54.1470   -9.2070   34.3510 C.ar      1 SUB1       -0.010
     10 N1         54.2820   -8.3310   35.4110 N.ar      1 SUB1       -0.321
     11 CL         53.2780   -4.0030   37.9660 Cl        1 SUB1       -0.067
     12 N2         51.5570   -7.3920   32.1290 N.pl3     1 SUB1       -0.268
     13 C10        51.7620   -7.9990   30.8030 C.ar      1 SUB1        0.047
     14 C11        52.2390   -7.1460   29.7490 C.ar      1 SUB1       -0.053
     15 C12        52.3870   -7.6880   28.4230 C.ar      1 SUB1       -0.048
     16 C13        52.0850   -9.0710   28.1240 C.ar      1 SUB1        0.079
     17 C14        51.6220   -9.9360   29.2160 C.ar      1 SUB1       -0.008
     18 C15        51.4580   -9.3700   30.5100 C.ar      1 SUB1       -0.043
     19 O          52.2610   -9.5310   26.6840 O.3       1 SUB1       -0.344
     20 C16        51.5420  -11.3140   28.6290 C.3       1 SUB1        0.029
     21 N3         52.4700  -12.4260   28.6670 N.3       1 SUB1       -0.294
     22 C17        52.6450  -12.4780   27.2420 C.3       1 SUB1       -0.002
     23 C18        52.1520  -13.0520   25.9320 C.3       1 SUB1       -0.052
     24 C19        51.6370  -13.4900   29.1610 C.3       1 SUB1       -0.002
     25 C20        50.9020  -14.3070   30.2070 C.3       1 SUB1       -0.052
     26 H21        51.5456   -3.7150   35.6132 H         1 SUB1        0.061
     27 H31        51.2056   -5.2682   33.6414 H         1 SUB1        0.066
     28 H61        54.4165   -6.5260   37.3524 H         1 SUB1        0.062
     29 H81        53.1760   -9.6505   32.4492 H         1 SUB1        0.055
     30 H91        54.7276  -10.1224   34.3465 H         1 SUB1        0.080
     31 H121       50.7693   -6.7461   32.2815 H         1 SUB1        0.214
     32 H141       52.4839   -6.1092   29.9494 H         1 SUB1        0.046
     33 H151       52.7348   -7.0410   27.6258 H         1 SUB1        0.050
     34 H181       51.0874  -10.0015   31.3093 H         1 SUB1        0.045
     35 H191       52.5688   -8.8038   26.1558 H         1 SUB1        0.242
     36 H201       51.3953  -11.1324   27.5541 H         1 SUB1        0.056
     37 H202       50.6189  -11.7288   29.0601 H         1 SUB1        0.056
     38 H221       53.6969  -12.7968   27.1977 H         1 SUB1        0.043
     39 H222       52.5769  -11.4050   27.0094 H         1 SUB1        0.043
     40 H231       52.7696  -12.6666   25.1073 H         1 SUB1        0.024
     41 H232       51.1040  -12.7575   25.7739 H         1 SUB1        0.024
     42 H233       52.2240  -14.1492   25.9622 H         1 SUB1        0.024
     43 H241       52.2162  -14.3201   28.7303 H         1 SUB1        0.043
     44 H242       50.7658  -13.2809   28.5228 H         1 SUB1        0.043
     45 H251       50.3752  -15.1398   29.7182 H         1 SUB1        0.024
     46 H252       50.1737  -13.6672   30.7268 H         1 SUB1        0.024
     47 H253       51.6241  -14.7064   30.9343 H         1 SUB1        0.024
@<TRIPOS>BOND
     1    1    2 ar 
     2    1    6 ar 
     3    1   11 1  
     4    2    3 ar 
     5    3    4 ar 
     6    4    5 ar 
     7    4    7 ar 
     8    5    6 ar 
     9    5   10 ar 
    10    7    8 ar 
    11    7   12 1  
    12    8    9 ar 
    13    9   10 ar 
    14   12   13 1  
    15   13   14 ar 
    16   13   18 ar 
    17   14   15 ar 
    18   15   16 ar 
    19   16   17 ar 
    20   16   19 1  
    21   17   18 ar 
    22   17   20 1  
    23   20   21 1  
    24   21   22 1  
    25   21   24 1  
    26   22   23 1  
    27   24   25 1  
    28    2   26 1  
    29    3   27 1  
    30    6   28 1  
    31    8   29 1  
    32    9   30 1  
    33   12   31 1  
    34   14   32 1  
    35   15   33 1  
    36   18   34 1  
    37   19   35 1  
    38   20   36 1  
    39   20   37 1  
    40   22   38 1  
    41   22   39 1  
    42   23   40 1  
    43   23   41 1  
    44   23   42 1  
    45   24   43 1  
    46   24   44 1  
    47   25   45 1  
    48   25   46 1  
    49   25   47 1  
@<TRIPOS>SUBSTRUCTURE
     1 SUB1        1 GROUP

