1xgj_ligand
  -I-interpret- 

 29 30  0  0  0  0  0  0  0  0999 V2000
  -57.1590    4.3260   57.5820 N   0  0  0  0  0
  -55.8260    5.4620   57.7050 S   0  0  0  0  0
  -55.7900    6.1800   56.4740 O   0  0  0  0  0
  -54.5950    4.7130   57.9000 O   0  0  0  0  0
  -56.0630    6.6900   59.0860 C   0  0  0  0  0
  -56.1900    8.0750   58.8870 C   0  0  0  0  0
  -56.3550    8.7000   60.1290 C   0  0  0  0  0
  -56.3320    7.7090   61.1400 S   0  0  0  0  0
  -56.1480    6.4450   60.4850 C   0  0  0  0  0
  -56.0690    5.1360   61.1990 C   0  0  0  0  0
  -56.1500    5.1270   62.4350 O   0  0  0  0  0
  -55.9160    3.9960   60.5310 O   0  5  0  0  0
  -58.4610    4.7900   57.2240 C   0  0  0  0  0
  -58.9700    4.5860   55.8810 C   0  0  0  0  0
  -60.2830    5.0410   55.5340 C   0  0  0  0  0
  -61.1020    5.7060   56.5330 C   0  0  0  0  0
  -60.5980    5.9170   57.8720 C   0  0  0  0  0
  -59.2830    5.4620   58.2180 C   0  0  0  0  0
  -58.2030    3.9530   54.9360 O   0  0  0  0  0
  -62.4940    6.1810   56.1690 C   0  0  0  0  0
  -63.2610    6.7990   57.0820 O   0  5  0  0  0
  -62.9260    5.9960   55.0270 O   0  0  0  0  0
  -57.0064    3.3543   57.7626 H   0  0  0  0  0
  -56.1643    8.5806   57.9228 H   0  0  0  0  0
  -56.4801    9.7697   60.2904 H   0  0  0  0  0
  -60.6640    4.8899   54.5305 H   0  0  0  0  0
  -61.2124    6.4175   58.6117 H   0  0  0  0  0
  -58.9015    5.6189   59.2205 H   0  0  0  0  0
  -57.3662    3.7142   55.3171 H   0  0  0  0  0
  1  2  1  0  0  0
  1 13  1  0  0  0
  2  3  2  0  0  0
  2  4  2  0  0  0
  2  5  1  0  0  0
  5  6  1  0  0  0
  5  9  2  0  0  0
  6  7  2  0  0  0
  7  8  1  0  0  0
  8  9  1  0  0  0
  9 10  1  0  0  0
 10 11  2  0  0  0
 10 12  1  0  0  0
 13 14  4  0  0  0
 13 18  4  0  0  0
 14 15  4  0  0  0
 14 19  1  0  0  0
 15 16  4  0  0  0
 16 17  4  0  0  0
 16 20  1  0  0  0
 17 18  4  0  0  0
 20 21  1  0  0  0
 20 22  2  0  0  0
  1 23  1  0  0  0
  6 24  1  0  0  0
  7 25  1  0  0  0
 15 26  1  0  0  0
 17 27  1  0  0  0
 18 28  1  0  0  0
 19 29  1  0  0  0
M  END
$$$$
