### 
### Created by X-TOOL on Tue Oct 25 02:05:58 2005
### 

@<TRIPOS>MOLECULE
1ai5_ligand
   19    19     1     0     0
SMALL
GAST_HUCK


@<TRIPOS>ATOM
      1 C1         14.0160   37.7680   36.3700 C.2       1 SUB1        0.311
      2 C2         13.9490   36.3240   35.8790 C.3       1 SUB1        0.166
      3 C1'        12.6700   35.9080   35.2370 C.ar      1 SUB1        0.030
      4 C2'        12.4280   36.4610   34.0030 C.ar      1 SUB1       -0.010
      5 C3'        11.2590   36.0710   33.4050 C.ar      1 SUB1        0.135
      6 N3'        10.9480   36.5440   32.1190 N.2       1 SUB1        0.042
      7 O3'         9.7150   35.9000   31.8610 O.2       1 SUB1       -0.149
      8 O4'        11.6460   37.4310   31.3120 O.2       1 SUB1       -0.149
      9 C4'        10.3140   35.1870   33.8960 C.ar      1 SUB1       -0.027
     10 C5'        10.5900   34.6320   35.1090 C.ar      1 SUB1       -0.056
     11 C6'        11.7540   35.0150   35.7910 C.ar      1 SUB1       -0.042
     12 O1         14.5840   37.9400   37.4320 O.co2     1 SUB1       -0.383
     13 O2         13.5320   38.7810   35.9290 O.co2     1 SUB1       -0.383
     14 H21        14.1200   35.6666   36.7442 H         1 SUB1        0.127
     15 H22        14.7555   36.1810   35.1448 H         1 SUB1        0.127
     16 H41        13.1143   37.1575   33.5351 H         1 SUB1        0.067
     17 H91         9.4089   34.9506   33.3483 H         1 SUB1        0.066
     18 H101        9.9166   33.9016   35.5428 H         1 SUB1        0.062
     19 H111       11.9468   34.6054   36.7760 H         1 SUB1        0.064
@<TRIPOS>BOND
     1    1   13 2  
     2    1   12 2  
     3    1    2 1  
     4    2    3 1  
     5    3   11 ar 
     6    3    4 ar 
     7    4    5 ar 
     8    5    9 ar 
     9    5    6 1  
    10    6    8 2  
    11    6    7 2  
    12    9   10 ar 
    13   10   11 ar 
    14    2   14 1  
    15    2   15 1  
    16    4   16 1  
    17    9   17 1  
    18   10   18 1  
    19   11   19 1  
@<TRIPOS>SUBSTRUCTURE
     1 SUB1        1 GROUP

