2hf8_ligand
  -I-interpret- 

 45 47  0  0  0  0  0  0  0  0999 V2000
   -7.3620   17.4420  -24.4690 P   0  0  0  0  0
   -6.5810   17.3940  -25.8740 O   0  0  0  0  0
   -6.2640   17.6690  -23.1780 S   0  0  0  0  0
   -8.3170   18.6550  -24.5170 O   0  5  0  0  0
   -8.1380   16.1350  -24.2400 O   0  0  0  0  0
   -5.9680   16.0760  -26.5760 P   0  0  0  0  0
   -4.6350   15.7700  -26.0220 O   0  0  0  0  0
   -6.8800   14.9110  -26.5080 O   0  5  0  0  0
   -6.7110   16.3800  -29.3240 P   0  0  0  0  0
   -6.7330   14.9740  -29.7920 O   0  0  0  0  0
   -8.0640   16.8820  -28.9800 O   0  5  0  0  0
   -5.7170   16.5840  -28.0770 O   0  0  0  0  0
   -5.9680   17.2770  -30.4220 O   0  0  0  0  0
   -5.7700   18.6640  -30.2230 C   0  0  0  0  0
   -5.6540   19.3590  -31.5760 C   0  0  0  0  0
   -4.4380   19.0100  -32.2080 O   0  0  0  0  0
   -6.7480   18.9710  -32.5610 C   0  0  0  0  0
   -7.0430   20.1570  -33.2650 O   0  0  0  0  0
   -6.0920   17.9600  -33.4800 C   0  0  0  0  0
   -6.6300   17.9660  -34.7760 O   0  0  0  0  0
   -4.6710   18.4740  -33.5060 C   0  0  0  0  0
   -3.6100   17.4830  -33.7310 N   0  0  0  0  0
   -3.3420   16.3610  -32.9840 C   0  0  0  0  0
   -2.2410   15.7730  -33.5050 N   0  0  0  0  0
   -1.8000   16.5120  -34.5520 C   0  0  0  0  0
   -0.7230   16.3750  -35.4240 C   0  0  0  0  0
    0.0420   15.4220  -35.3080 O   0  0  0  0  0
   -0.5180   17.3160  -36.4160 N   0  0  0  0  0
   -1.3790   18.3900  -36.5430 C   0  0  0  0  0
   -1.1850   19.2950  -37.4940 N   0  0  0  0  0
   -2.4450   18.5250  -35.6830 N   0  0  0  0  0
   -2.6490   17.6010  -34.6990 C   0  0  0  0  0
   -6.7716   17.6963  -22.3076 H   0  0  0  0  0
   -4.8460   18.8240  -29.6480 H   0  0  0  0  0
   -6.6238   19.0807  -29.6685 H   0  0  0  0  0
   -5.6888   20.4455  -31.4078 H   0  0  0  0  0
   -7.6405   18.5571  -32.0690 H   0  0  0  0  0
   -7.7254   19.9839  -33.9029 H   0  0  0  0  0
   -6.1525   16.9441  -33.0626 H   0  0  0  0  0
   -6.5130   18.8260  -35.1622 H   0  0  0  0  0
   -4.5914   19.2558  -34.2757 H   0  0  0  0  0
   -3.9135   16.0086  -32.1266 H   0  0  0  0  0
    0.2549   17.2194  -37.0431 H   0  0  0  0  0
   -1.8295   20.0934  -37.5843 H   0  0  0  0  0
   -0.3900   19.1990  -38.1418 H   0  0  0  0  0
  2  1  1  0  0  0
  1  3  1  0  0  0
  1  4  1  0  0  0
  1  5  2  0  0  0
  6  2  1  0  0  0
  6  7  2  0  0  0
  6  8  1  0  0  0
 12  6  1  0  0  0
  9 10  2  0  0  0
  9 11  1  0  0  0
  9 12  1  0  0  0
  9 13  1  0  0  0
 13 14  1  0  0  0
 14 15  1  0  0  0
 15 16  1  0  0  0
 15 17  1  0  0  0
 16 21  1  0  0  0
 17 18  1  0  0  0
 17 19  1  0  0  0
 19 20  1  0  0  0
 19 21  1  0  0  0
 21 22  1  0  0  0
 22 23  1  0  0  0
 22 32  1  0  0  0
 23 24  2  0  0  0
 24 25  1  0  0  0
 25 26  1  0  0  0
 25 32  2  0  0  0
 26 27  2  0  0  0
 26 28  1  0  0  0
 28 29  1  0  0  0
 29 30  1  0  0  0
 29 31  2  0  0  0
 31 32  1  0  0  0
  3 33  1  0  0  0
 14 34  1  0  0  0
 14 35  1  0  0  0
 15 36  1  0  0  0
 17 37  1  0  0  0
 18 38  1  0  0  0
 19 39  1  0  0  0
 20 40  1  0  0  0
 21 41  1  0  0  0
 23 42  1  0  0  0
 28 43  1  0  0  0
 30 44  1  0  0  0
 30 45  1  0  0  0
M  END
$$$$
