### 
### Created by X-TOOL on Sun Jun  3 12:43:12 2007
### 

@<TRIPOS>MOLECULE
2hf8_ligand
   45    47     1     0     0
SMALL
GAST_HUCK


@<TRIPOS>ATOM
      1 PG         -7.3620   17.4420  -24.4690 P.3       1 SUB1        0.124
      2 O3B        -6.5810   17.3940  -25.8740 O.3       1 SUB1       -0.298
      3 S1G        -6.2640   17.6690  -23.1780 S.3       1 SUB1       -0.182
      4 O2G        -8.3170   18.6550  -24.5170 O.co2     1 SUB1       -0.616
      5 O3G        -8.1380   16.1350  -24.2400 O.co2     1 SUB1       -0.616
      6 PB         -5.9680   16.0760  -26.5760 P.3       1 SUB1        0.354
      7 O1B        -4.6350   15.7700  -26.0220 O.co2     1 SUB1       -0.497
      8 O2B        -6.8800   14.9110  -26.5080 O.co2     1 SUB1       -0.497
      9 PA         -6.7110   16.3800  -29.3240 P.3       1 SUB1        0.350
     10 O1A        -6.7330   14.9740  -29.7920 O.co2     1 SUB1       -0.488
     11 O2A        -8.0640   16.8820  -28.9800 O.co2     1 SUB1       -0.488
     12 O3A        -5.7170   16.5840  -28.0770 O.3       1 SUB1       -0.186
     13 O5         -5.9680   17.2770  -30.4220 O.3       1 SUB1       -0.280
     14 C5         -5.7700   18.6640  -30.2230 C.3       1 SUB1        0.102
     15 C4         -5.6540   19.3590  -31.5760 C.3       1 SUB1        0.118
     16 O4         -4.4380   19.0100  -32.2080 O.3       1 SUB1       -0.336
     17 C3         -6.7480   18.9710  -32.5610 C.3       1 SUB1        0.115
     18 O3         -7.0430   20.1570  -33.2650 O.3       1 SUB1       -0.386
     19 C2         -6.0920   17.9600  -33.4800 C.3       1 SUB1        0.139
     20 O2         -6.6300   17.9660  -34.7760 O.3       1 SUB1       -0.384
     21 C1         -4.6710   18.4740  -33.5060 C.3       1 SUB1        0.199
     22 N9         -3.6100   17.4830  -33.7310 N.pl3     1 SUB1       -0.210
     23 C8         -3.3420   16.3610  -32.9840 C.2       1 SUB1        0.096
     24 N7         -2.2410   15.7730  -33.5050 N.2       1 SUB1       -0.324
     25 C5         -1.8000   16.5120  -34.5520 C.2       1 SUB1        0.093
     26 C6         -0.7230   16.3750  -35.4240 C.2       1 SUB1        0.213
     27 O6          0.0420   15.4220  -35.3080 O.2       1 SUB1       -0.409
     28 N1         -0.5180   17.3160  -36.4160 N.am      1 SUB1       -0.184
     29 C2         -1.3790   18.3900  -36.5430 C.2       1 SUB1        0.234
     30 N2         -1.1850   19.2950  -37.4940 N.pl3     1 SUB1       -0.281
     31 N3         -2.4450   18.5250  -35.6830 N.2       1 SUB1       -0.276
     32 C4         -2.6490   17.6010  -34.6990 C.2       1 SUB1        0.116
     33 H          -6.7716   17.6963  -22.3076 H         1 SUB1        0.090
     34 H          -4.8460   18.8240  -29.6480 H         1 SUB1        0.064
     35 H          -6.6238   19.0807  -29.6685 H         1 SUB1        0.064
     36 H          -5.6888   20.4455  -31.4078 H         1 SUB1        0.065
     37 H          -7.6405   18.5571  -32.0690 H         1 SUB1        0.065
     38 H          -7.7254   19.9839  -33.9029 H         1 SUB1        0.210
     39 H          -6.1525   16.9441  -33.0626 H         1 SUB1        0.068
     40 H          -6.5130   18.8260  -35.1622 H         1 SUB1        0.210
     41 H          -4.5914   19.2558  -34.2757 H         1 SUB1        0.100
     42 H          -3.9135   16.0086  -32.1266 H         1 SUB1        0.118
     43 H           0.2549   17.2194  -37.0431 H         1 SUB1        0.252
     44 H          -1.8295   20.0934  -37.5843 H         1 SUB1        0.190
     45 H          -0.3900   19.1990  -38.1418 H         1 SUB1        0.190
@<TRIPOS>BOND
     1    2    1 1  
     2    1    3 1  
     3    1    4 2  
     4    1    5 2  
     5    6    2 1  
     6    6    7 2  
     7    6    8 2  
     8   12    6 1  
     9    9   10 2  
    10    9   11 2  
    11    9   12 1  
    12    9   13 1  
    13   13   14 1  
    14   14   15 1  
    15   15   16 1  
    16   15   17 1  
    17   16   21 1  
    18   17   18 1  
    19   17   19 1  
    20   19   20 1  
    21   19   21 1  
    22   21   22 1  
    23   22   23 1  
    24   22   32 1  
    25   23   24 2  
    26   24   25 1  
    27   25   26 1  
    28   25   32 2  
    29   26   27 2  
    30   26   28 am 
    31   28   29 am 
    32   29   30 1  
    33   29   31 2  
    34   31   32 1  
    35    3   33 1  
    36   14   34 1  
    37   14   35 1  
    38   15   36 1  
    39   17   37 1  
    40   18   38 1  
    41   19   39 1  
    42   20   40 1  
    43   21   41 1  
    44   23   42 1  
    45   28   43 1  
    46   30   44 1  
    47   30   45 1  
@<TRIPOS>SUBSTRUCTURE
     1 SUB1        1 GROUP

