### 
### Created by X-TOOL on Mon Oct 24 22:55:22 2005
### 

@<TRIPOS>MOLECULE
1g54_ligand
   34    35     1     0     0
SMALL
GAST_HUCK


@<TRIPOS>ATOM
      1 H31        -2.4402    3.5838   14.6722 H         1 SUB1        0.067
      2 H41        -3.2727    1.6729   16.0074 H         1 SUB1        0.065
      3 C01        -3.4990    3.5140   14.8940 C.ar      1 SUB1       -0.040
      4 C02        -3.9700    2.4230   15.6520 C.ar      1 SUB1       -0.030
      5 C03        -5.3570    2.3000   15.9540 C.ar      1 SUB1        0.112
      6 C04        -6.1840    3.3040   15.4690 C.ar      1 SUB1       -0.030
      7 C05        -5.6860    4.3730   14.7270 C.ar      1 SUB1       -0.040
      8 C06        -4.3550    4.5030   14.4230 C.ar      1 SUB1        0.050
      9 C07        -3.8980    5.7010   13.5960 C.2       1 SUB1        0.206
     10 O08        -4.8220    6.4410   13.2880 O.2       1 SUB1       -0.384
     11 N09        -2.5810    6.0700   13.1380 N.am      1 SUB1       -0.277
     12 C10        -2.5570    7.3350   12.3420 C.3       1 SUB1        0.062
     13 S11        -5.9420    0.8710   16.9250 S.o2      1 SUB1        0.068
     14 NP2        -5.4100   -0.5200   16.1990 N.am      1 SUB1       -0.261
     15 O13        -7.3760    1.0970   16.9330 O.2       1 SUB1       -0.150
     16 O14        -5.3850    1.0630   18.2610 O.2       1 SUB1       -0.150
     17 C15        -2.2100    8.6120   12.8640 C.ar      1 SUB1        0.039
     18 C16        -2.2510    9.7780   12.0200 C.ar      1 SUB1        0.161
     19 C17        -1.9020   11.0540   12.5910 C.ar      1 SUB1        0.186
     20 C18        -1.5250   11.1470   13.9530 C.ar      1 SUB1        0.187
     21 C19        -1.4860    9.9880   14.7750 C.ar      1 SUB1        0.186
     22 C20        -1.8250    8.7280   14.2450 C.ar      1 SUB1        0.161
     23 F21        -2.6090    9.6900   10.7320 F         1 SUB1       -0.195
     24 F22        -1.9340   12.1560   11.8310 F         1 SUB1       -0.191
     25 F23        -1.2010   12.3350   14.4790 F         1 SUB1       -0.193
     26 F24        -1.1280   10.0760   16.0630 F         1 SUB1       -0.191
     27 F25        -1.7760    7.6620   15.0560 F         1 SUB1       -0.195
     28 H61        -7.2474    3.2549   15.6734 H         1 SUB1        0.065
     29 H71        -6.3771    5.1310   14.3766 H         1 SUB1        0.067
     30 H111       -1.7620    5.5309   13.3343 H         1 SUB1        0.187
     31 H121       -3.5734    7.4481   11.9369 H         1 SUB1        0.066
     32 H122       -1.8520    7.1517   11.5177 H         1 SUB1        0.066
     33 H141       -5.6390   -1.4165   16.5988 H         1 SUB1        0.163
     34 H142       -4.8617   -0.4702   15.3642 H         1 SUB1        0.163
@<TRIPOS>BOND
     1    3    8 ar 
     2    3    4 ar 
     3    4    5 ar 
     4    5   13 1  
     5    5    6 ar 
     6    6    7 ar 
     7    7    8 ar 
     8    8    9 1  
     9    9   11 am 
    10    9   10 2  
    11   11   12 1  
    12   12   17 1  
    13   17   22 ar 
    14   17   18 ar 
    15   18   19 ar 
    16   19   20 ar 
    17   20   21 ar 
    18   21   22 ar 
    19   13   16 2  
    20   13   15 2  
    21   13   14 1  
    22   22   27 1  
    23   21   26 1  
    24   20   25 1  
    25   19   24 1  
    26   18   23 1  
    27    3    1 1  
    28    4    2 1  
    29    6   28 1  
    30    7   29 1  
    31   11   30 1  
    32   12   31 1  
    33   12   32 1  
    34   14   33 1  
    35   14   34 1  
@<TRIPOS>SUBSTRUCTURE
     1 SUB1        1 GROUP

