5er1_ligand
  -I-interpret- 

 87 87  0  0  0  0  0  0  0  0999 V2000
   36.8870   -4.6090    1.6280 C   0  0  0  0  0
   38.3870   -6.4960    2.0040 C   0  0  0  0  0
   36.9420   -6.1370    1.6530 C   0  0  0  0  0
   35.9240   -6.7550    2.6110 C   0  0  0  0  0
   34.8830   -8.9140    2.0700 N   0  3  0  0  0
   36.0430   -8.2750    2.7100 C   0  0  0  0  0
   36.0700   -8.6090    4.1960 C   0  0  0  0  0
   34.8400   -8.2350    4.7810 O   0  0  0  0  0
   36.4000  -10.0830    4.4700 C   0  0  0  0  0
   35.3670  -10.8190    4.8460 N   0  3  0  0  0
   35.5180  -12.0550    5.6330 C   0  0  0  0  0
   36.9810  -12.4800    5.6680 C   0  0  0  0  0
   37.5530  -12.8830    4.6450 O   0  0  0  0  0
   34.8040  -13.2220    4.9470 C   0  0  0  0  0
   35.1140  -14.5740    5.5950 C   0  0  0  0  0
   33.2810  -13.0900    4.9680 C   0  0  0  0  0
   37.5410  -12.3800    6.8530 N   0  0  0  0  0
   38.9210  -12.7960    7.1110 C   0  0  0  0  0
   39.0550  -14.3010    6.8730 C   0  0  0  0  0
   38.2960  -15.1060    7.4340 O   0  0  0  0  0
   39.3040  -12.4700    8.5540 C   0  0  0  0  0
   40.6630  -13.0470    8.9550 C   0  0  0  0  0
   38.3010  -13.0100    9.5750 C   0  0  0  0  0
   41.4910  -12.0850    9.8090 C   0  0  0  0  0
   40.0140  -14.6280    6.0300 N   0  0  0  0  0
   40.3100  -16.0180    5.6550 C   0  0  0  0  0
   41.6600  -16.4400    6.2390 C   0  0  0  0  0
   42.3860  -17.2510    5.6460 O   0  0  0  0  0
   40.3720  -16.1470    4.1310 C   0  0  0  0  0
   39.0240  -16.5060    3.5020 C   0  0  0  0  0
   37.8320  -16.1110    4.1230 C   0  0  0  0  0
   38.9810  -17.2280    2.3030 C   0  0  0  0  0
   36.5990  -16.4360    3.5440 C   0  0  0  0  0
   37.7480  -17.5520    1.7240 C   0  0  0  0  0
   36.5570  -17.1560    2.3440 C   0  0  0  0  0
   43.1450  -14.9660    7.2560 C   0  0  0  0  0
   42.0980  -15.9000    7.4770 O   0  0  0  0  0
   34.7745  -10.2117    5.3902 H   0  0  0  0  0
   35.1279  -11.8984    6.6495 H   0  0  0  0  0
   35.1425  -13.2446    3.9006 H   0  0  0  0  0
   36.1945  -14.7707    5.5338 H   0  0  0  0  0
   34.5663  -15.3681    5.0665 H   0  0  0  0  0
   34.8040  -14.5546    6.6502 H   0  0  0  0  0
   32.9298  -13.0620    6.0100 H   0  0  0  0  0
   32.8311  -13.9513    4.4525 H   0  0  0  0  0
   32.9863  -12.1618    4.4566 H   0  0  0  0  0
   37.0033  -12.0050    7.6082 H   0  0  0  0  0
   39.5947  -12.2585    6.4275 H   0  0  0  0  0
   39.3445  -11.3744    8.6437 H   0  0  0  0  0
   41.2287  -13.2801    8.0409 H   0  0  0  0  0
   40.4965  -13.9707    9.5286 H   0  0  0  0  0
   37.3133  -12.5621    9.3909 H   0  0  0  0  0
   38.6368  -12.7526   10.5904 H   0  0  0  0  0
   38.2317  -14.1035    9.4780 H   0  0  0  0  0
   41.6829  -11.1628    9.2409 H   0  0  0  0  0
   42.4480  -12.5592   10.0723 H   0  0  0  0  0
   40.9376  -11.8412   10.7279 H   0  0  0  0  0
   40.5652  -13.8972    5.6273 H   0  0  0  0  0
   39.5194  -16.6749    6.0467 H   0  0  0  0  0
   41.0975  -16.9334    3.8757 H   0  0  0  0  0
   40.7090  -15.1873    3.7121 H   0  0  0  0  0
   37.8641  -15.5535    5.0521 H   0  0  0  0  0
   39.9027  -17.5362    1.8228 H   0  0  0  0  0
   35.6770  -16.1301    4.0250 H   0  0  0  0  0
   37.7157  -18.1098    0.7951 H   0  0  0  0  0
   35.6027  -17.4067    1.8952 H   0  0  0  0  0
   37.6399   -4.2265    0.9231 H   0  0  0  0  0
   37.0953   -4.2180    2.6348 H   0  0  0  0  0
   35.8863   -4.2833    1.3080 H   0  0  0  0  0
   38.4949   -7.5901    2.0384 H   0  0  0  0  0
   38.6421   -6.0713    2.9861 H   0  0  0  0  0
   39.0630   -6.0848    1.2399 H   0  0  0  0  0
   36.7174   -6.5163    0.6452 H   0  0  0  0  0
   34.9130   -6.5050    2.2571 H   0  0  0  0  0
   36.0788   -6.3255    3.6118 H   0  0  0  0  0
   34.9701   -9.9158    2.1401 H   0  0  0  0  0
   34.8458   -8.6472    1.0987 H   0  0  0  0  0
   34.0381   -8.6170    2.5326 H   0  0  0  0  0
   36.9683   -8.6185    2.2243 H   0  0  0  0  0
   36.8638   -8.0052    4.6601 H   0  0  0  0  0
   34.8553   -8.4427    5.7079 H   0  0  0  0  0
   37.1572  -10.1225    5.2669 H   0  0  0  0  0
   36.8141  -10.5187    3.5488 H   0  0  0  0  0
   34.8892  -11.0836    3.9988 H   0  0  0  0  0
   43.4776  -14.5533    8.2198 H   0  0  0  0  0
   42.7796  -14.1506    6.6145 H   0  0  0  0  0
   43.9886  -15.4708    6.7626 H   0  0  0  0  0
  3  1  1  0  0  0
  3  2  1  0  0  0
  4  3  1  0  0  0
  6  4  1  0  0  0
  6  5  1  0  0  0
  7  6  1  0  0  0
  7  8  1  0  0  0
 12 11  1  0  0  0
 11 14  1  0  0  0
 11 10  1  0  0  0
 14 15  1  0  0  0
 14 16  1  0  0  0
 12 13  2  0  0  0
 19 18  1  0  0  0
 18 21  1  0  0  0
 18 17  1  0  0  0
 21 22  1  0  0  0
 21 23  1  0  0  0
 22 24  1  0  0  0
 19 20  2  0  0  0
 27 26  1  0  0  0
 26 29  1  0  0  0
 26 25  1  0  0  0
 29 30  1  0  0  0
 30 32  4  0  0  0
 30 31  4  0  0  0
 31 33  4  0  0  0
 33 35  4  0  0  0
 34 35  4  0  0  0
 32 34  4  0  0  0
 27 28  2  0  0  0
 37 36  1  0  0  0
 17 12  1  0  0  0
 25 19  1  0  0  0
  9  7  1  0  0  0
 10  9  1  0  0  0
 37 27  1  0  0  0
 10 38  1  0  0  0
 11 39  1  0  0  0
 14 40  1  0  0  0
 15 41  1  0  0  0
 15 42  1  0  0  0
 15 43  1  0  0  0
 16 44  1  0  0  0
 16 45  1  0  0  0
 16 46  1  0  0  0
 17 47  1  0  0  0
 18 48  1  0  0  0
 21 49  1  0  0  0
 22 50  1  0  0  0
 22 51  1  0  0  0
 23 52  1  0  0  0
 23 53  1  0  0  0
 23 54  1  0  0  0
 24 55  1  0  0  0
 24 56  1  0  0  0
 24 57  1  0  0  0
 25 58  1  0  0  0
 26 59  1  0  0  0
 29 60  1  0  0  0
 29 61  1  0  0  0
 31 62  1  0  0  0
 32 63  1  0  0  0
 33 64  1  0  0  0
 34 65  1  0  0  0
 35 66  1  0  0  0
  1 67  1  0  0  0
  1 68  1  0  0  0
  1 69  1  0  0  0
  2 70  1  0  0  0
  2 71  1  0  0  0
  2 72  1  0  0  0
  3 73  1  0  0  0
  4 74  1  0  0  0
  4 75  1  0  0  0
  5 76  1  0  0  0
  5 77  1  0  0  0
  5 78  1  0  0  0
  6 79  1  0  0  0
  7 80  1  0  0  0
  8 81  1  0  0  0
  9 82  1  0  0  0
  9 83  1  0  0  0
 10 84  1  0  0  0
 36 85  1  0  0  0
 36 86  1  0  0  0
 36 87  1  0  0  0
M  END
$$$$
