### 
### Created by X-TOOL on Mon Oct 24 23:44:01 2005
### 

@<TRIPOS>MOLECULE
5er1_ligand
   87    87     1     0     0
SMALL
GAST_HUCK


@<TRIPOS>ATOM
      1 CD1        36.8870   -4.6090    1.6280 C.3       1 SUB1       -0.062
      2 CD2        38.3870   -6.4960    2.0040 C.3       1 SUB1       -0.062
      3 CG         36.9420   -6.1370    1.6530 C.3       1 SUB1       -0.042
      4 CB         35.9240   -6.7550    2.6110 C.3       1 SUB1       -0.005
      5 N          34.8830   -8.9140    2.0700 N.4       1 SUB1        0.223
      6 CA         36.0430   -8.2750    2.7100 C.3       1 SUB1        0.007
      7 CH         36.0700   -8.6090    4.1960 C.3       1 SUB1        0.137
      8 OH         34.8400   -8.2350    4.7810 O.3       1 SUB1       -0.381
      9 CH2        36.4000  -10.0830    4.4700 C.3       1 SUB1        0.000
     10 N          35.3670  -10.8190    4.8460 N.4       1 SUB1        0.248
     11 CA         35.5180  -12.0550    5.6330 C.3       1 SUB1        0.069
     12 C          36.9810  -12.4800    5.6680 C.2       1 SUB1        0.227
     13 O          37.5530  -12.8830    4.6450 O.2       1 SUB1       -0.391
     14 CB         34.8040  -13.2220    4.9470 C.3       1 SUB1        0.014
     15 CG1        35.1140  -14.5740    5.5950 C.3       1 SUB1       -0.055
     16 CG2        33.2810  -13.0900    4.9680 C.3       1 SUB1       -0.055
     17 N          37.5410  -12.3800    6.8530 N.am      1 SUB1       -0.261
     18 CA         38.9210  -12.7960    7.1110 C.3       1 SUB1        0.134
     19 C          39.0550  -14.3010    6.8730 C.2       1 SUB1        0.204
     20 O          38.2960  -15.1060    7.4340 O.2       1 SUB1       -0.394
     21 CB         39.3040  -12.4700    8.5540 C.3       1 SUB1       -0.004
     22 CG1        40.6630  -13.0470    8.9550 C.3       1 SUB1       -0.049
     23 CG2        38.3010  -13.0100    9.5750 C.3       1 SUB1       -0.058
     24 CD1        41.4910  -12.0850    9.8090 C.3       1 SUB1       -0.065
     25 N          40.0140  -14.6280    6.0300 N.am      1 SUB1       -0.261
     26 CA         40.3100  -16.0180    5.6550 C.3       1 SUB1        0.152
     27 C          41.6600  -16.4400    6.2390 C.2       1 SUB1        0.261
     28 O          42.3860  -17.2510    5.6460 O.2       1 SUB1       -0.368
     29 CB         40.3720  -16.1470    4.1310 C.3       1 SUB1        0.023
     30 CG         39.0240  -16.5060    3.5020 C.ar      1 SUB1       -0.038
     31 CD1        37.8320  -16.1110    4.1230 C.ar      1 SUB1       -0.060
     32 CD2        38.9810  -17.2280    2.3030 C.ar      1 SUB1       -0.060
     33 CE1        36.5990  -16.4360    3.5440 C.ar      1 SUB1       -0.069
     34 CE2        37.7480  -17.5520    1.7240 C.ar      1 SUB1       -0.069
     35 CZ         36.5570  -17.1560    2.3440 C.ar      1 SUB1       -0.069
     36 CM         43.1450  -14.9660    7.2560 C.3       1 SUB1        0.066
     37 O          42.0980  -15.9000    7.4770 O.3       1 SUB1       -0.278
     38 H101       34.7745  -10.2117    5.3902 H         1 SUB1        0.204
     39 H111       35.1279  -11.8984    6.6495 H         1 SUB1        0.110
     40 H141       35.1425  -13.2446    3.9006 H         1 SUB1        0.038
     41 H151       36.1945  -14.7707    5.5338 H         1 SUB1        0.024
     42 H152       34.5663  -15.3681    5.0665 H         1 SUB1        0.024
     43 H153       34.8040  -14.5546    6.6502 H         1 SUB1        0.024
     44 H161       32.9298  -13.0620    6.0100 H         1 SUB1        0.024
     45 H162       32.8311  -13.9513    4.4525 H         1 SUB1        0.024
     46 H163       32.9863  -12.1618    4.4566 H         1 SUB1        0.024
     47 H171       37.0033  -12.0050    7.6082 H         1 SUB1        0.189
     48 H181       39.5947  -12.2585    6.4275 H         1 SUB1        0.080
     49 H211       39.3445  -11.3744    8.6437 H         1 SUB1        0.034
     50 H221       41.2287  -13.2801    8.0409 H         1 SUB1        0.027
     51 H222       40.4965  -13.9707    9.5286 H         1 SUB1        0.027
     52 H231       37.3133  -12.5621    9.3909 H         1 SUB1        0.023
     53 H232       38.6368  -12.7526   10.5904 H         1 SUB1        0.023
     54 H233       38.2317  -14.1035    9.4780 H         1 SUB1        0.023
     55 H241       41.6829  -11.1628    9.2409 H         1 SUB1        0.023
     56 H242       42.4480  -12.5592   10.0723 H         1 SUB1        0.023
     57 H243       40.9376  -11.8412   10.7279 H         1 SUB1        0.023
     58 H251       40.5652  -13.8972    5.6273 H         1 SUB1        0.189
     59 H261       39.5194  -16.6749    6.0467 H         1 SUB1        0.084
     60 H291       41.0975  -16.9334    3.8757 H         1 SUB1        0.047
     61 H292       40.7090  -15.1873    3.7121 H         1 SUB1        0.047
     62 H311       37.8641  -15.5535    5.0521 H         1 SUB1        0.056
     63 H321       39.9027  -17.5362    1.8228 H         1 SUB1        0.056
     64 H331       35.6770  -16.1301    4.0250 H         1 SUB1        0.060
     65 H341       37.7157  -18.1098    0.7951 H         1 SUB1        0.060
     66 H351       35.6027  -17.4067    1.8952 H         1 SUB1        0.056
     67 H11        37.6399   -4.2265    0.9231 H         1 SUB1        0.023
     68 H12        37.0953   -4.2180    2.6348 H         1 SUB1        0.023
     69 H13        35.8863   -4.2833    1.3080 H         1 SUB1        0.023
     70 H21        38.4949   -7.5901    2.0384 H         1 SUB1        0.023
     71 H22        38.6421   -6.0713    2.9861 H         1 SUB1        0.023
     72 H23        39.0630   -6.0848    1.2399 H         1 SUB1        0.023
     73 H31        36.7174   -6.5163    0.6452 H         1 SUB1        0.030
     74 H41        34.9130   -6.5050    2.2571 H         1 SUB1        0.032
     75 H42        36.0788   -6.3255    3.6118 H         1 SUB1        0.032
     76 H51        34.9701   -9.9158    2.1401 H         1 SUB1        0.200
     77 H52        34.8458   -8.6472    1.0987 H         1 SUB1        0.200
     78 H53        34.0381   -8.6170    2.5326 H         1 SUB1        0.200
     79 H61        36.9683   -8.6185    2.2243 H         1 SUB1        0.088
     80 H71        36.8638   -8.0052    4.6601 H         1 SUB1        0.071
     81 H81        34.8553   -8.4427    5.7079 H         1 SUB1        0.210
     82 H91        37.1572  -10.1225    5.2669 H         1 SUB1        0.084
     83 H92        36.8141  -10.5187    3.5488 H         1 SUB1        0.084
     84 H102       34.8892  -11.0836    3.9988 H         1 SUB1        0.204
     85 H361       43.4776  -14.5533    8.2198 H         1 SUB1        0.058
     86 H362       42.7796  -14.1506    6.6145 H         1 SUB1        0.058
     87 H363       43.9886  -15.4708    6.7626 H         1 SUB1        0.058
@<TRIPOS>BOND
     1    3    1 1  
     2    3    2 1  
     3    4    3 1  
     4    6    4 1  
     5    6    5 1  
     6    7    6 1  
     7    7    8 1  
     8   12   11 1  
     9   11   14 1  
    10   11   10 1  
    11   14   15 1  
    12   14   16 1  
    13   12   13 2  
    14   19   18 1  
    15   18   21 1  
    16   18   17 1  
    17   21   22 1  
    18   21   23 1  
    19   22   24 1  
    20   19   20 2  
    21   27   26 1  
    22   26   29 1  
    23   26   25 1  
    24   29   30 1  
    25   30   32 ar 
    26   30   31 ar 
    27   31   33 ar 
    28   33   35 ar 
    29   34   35 ar 
    30   32   34 ar 
    31   27   28 2  
    32   37   36 1  
    33   17   12 am 
    34   25   19 am 
    35    9    7 1  
    36   10    9 1  
    37   37   27 1  
    38   10   38 1  
    39   11   39 1  
    40   14   40 1  
    41   15   41 1  
    42   15   42 1  
    43   15   43 1  
    44   16   44 1  
    45   16   45 1  
    46   16   46 1  
    47   17   47 1  
    48   18   48 1  
    49   21   49 1  
    50   22   50 1  
    51   22   51 1  
    52   23   52 1  
    53   23   53 1  
    54   23   54 1  
    55   24   55 1  
    56   24   56 1  
    57   24   57 1  
    58   25   58 1  
    59   26   59 1  
    60   29   60 1  
    61   29   61 1  
    62   31   62 1  
    63   32   63 1  
    64   33   64 1  
    65   34   65 1  
    66   35   66 1  
    67    1   67 1  
    68    1   68 1  
    69    1   69 1  
    70    2   70 1  
    71    2   71 1  
    72    2   72 1  
    73    3   73 1  
    74    4   74 1  
    75    4   75 1  
    76    5   76 1  
    77    5   77 1  
    78    5   78 1  
    79    6   79 1  
    80    7   80 1  
    81    8   81 1  
    82    9   82 1  
    83    9   83 1  
    84   10   84 1  
    85   36   85 1  
    86   36   86 1  
    87   36   87 1  
@<TRIPOS>SUBSTRUCTURE
     1 SUB1        1 GROUP

