### 
### Created by X-TOOL on Mon Oct 24 22:36:21 2005
### 

@<TRIPOS>MOLECULE
1qy2_ligand
   23    23     1     0     0
SMALL
GAST_HUCK


@<TRIPOS>ATOM
      1 C9         48.4750   25.6490   42.1400 C.3       1 SUB1       -0.051
      2 C8         48.9590   24.8540   40.9240 C.3       1 SUB1        0.008
      3 C10        47.7690   24.2150   40.2100 C.3       1 SUB1       -0.051
      4 C2         49.9660   23.7680   41.3250 C.ar      1 SUB1        0.091
      5 N1         49.8510   23.0680   42.4600 N.ar      1 SUB1       -0.283
      6 C6         50.7040   22.1120   42.7950 C.ar      1 SUB1        0.020
      7 C5         51.7570   21.8080   41.9370 C.ar      1 SUB1        0.021
      8 N4         51.8890   22.4850   40.8060 N.ar      1 SUB1       -0.257
      9 C3         51.0280   23.4590   40.4780 C.ar      1 SUB1        0.199
     10 O7         51.1460   24.1920   39.3370 O.3       1 SUB1       -0.298
     11 C11        52.4100   24.1120   38.6670 C.3       1 SUB1        0.064
     12 H11        47.7568   26.4159   41.8144 H         1 SUB1        0.026
     13 H12        49.3340   26.1342   42.6265 H         1 SUB1        0.026
     14 H13        47.9865   24.9681   42.8525 H         1 SUB1        0.026
     15 H21        49.4552   25.5491   40.2307 H         1 SUB1        0.048
     16 H31        48.1263   23.6466   39.3387 H         1 SUB1        0.026
     17 H32        47.0764   25.0015   39.8757 H         1 SUB1        0.026
     18 H33        47.2475   23.5368   40.9014 H         1 SUB1        0.026
     19 H61        50.5835   21.5721   43.7272 H         1 SUB1        0.079
     20 H71        52.4621   21.0250   42.1917 H         1 SUB1        0.082
     21 H111       52.3873   24.7411   37.7649 H         1 SUB1        0.058
     22 H112       52.6082   23.0684   38.3813 H         1 SUB1        0.058
     23 H113       53.2049   24.4652   39.3403 H         1 SUB1        0.058
@<TRIPOS>BOND
     1    1    2 1  
     2    2    3 1  
     3    2    4 1  
     4    4    5 ar 
     5    4    9 ar 
     6    5    6 ar 
     7    6    7 ar 
     8    7    8 ar 
     9    8    9 ar 
    10    9   10 1  
    11   10   11 1  
    12    1   12 1  
    13    1   13 1  
    14    1   14 1  
    15    2   15 1  
    16    3   16 1  
    17    3   17 1  
    18    3   18 1  
    19    6   19 1  
    20    7   20 1  
    21   11   21 1  
    22   11   22 1  
    23   11   23 1  
@<TRIPOS>SUBSTRUCTURE
     1 SUB1        1 GROUP

