1o2z_ligand
  -I-interpret- 

 56 59  0  0  0  0  0  0  0  0999 V2000
   44.2790   -3.0530   25.9510 C   0  0  0  0  0
   44.5940   -1.6590   25.9970 C   0  0  0  0  0
   44.5240   -0.9070   27.1850 C   0  0  0  0  0
   44.1120   -1.5700   28.3210 C   0  0  0  0  0
   43.7890   -2.8720   28.3250 C   0  0  0  0  0
   43.8590   -3.6650   27.1730 C   0  0  0  0  0
   44.3530   -3.7730   24.7400 C   0  3  0  0  0
   43.9120   -5.0160   24.6900 N   0  0  0  0  0
   44.8650   -3.2000   23.6670 N   0  0  0  0  0
   43.9270   -1.1470   29.5270 N   0  0  0  0  0
   43.4130   -3.2960   29.5200 N   0  0  0  0  0
   43.5260   -2.1690   30.2190 C   0  0  0  0  0
   43.2490   -2.0920   31.6190 C   0  0  0  0  0
   42.8920   -3.2290   32.3650 C   0  0  0  0  0
   42.6230   -3.1660   33.7340 C   0  0  0  0  0
   42.2290   -4.4390   34.5270 C   0  0  0  0  0
   40.7860   -4.7230   34.0640 C   0  0  0  0  0
   40.6870   -5.4970   33.1190 O   0  5  0  0  0
   39.8600   -4.1650   34.6370 O   0  0  0  0  0
   42.3800   -4.2920   36.1480 C   0  0  0  0  0
   43.2280   -5.4210   36.8500 C   0  0  0  0  0
   43.0690   -6.5880   36.5120 O   0  0  0  0  0
   44.0240   -5.0800   37.7240 O   0  5  0  0  0
   42.7200   -1.9600   34.3720 C   0  0  0  0  0
   43.0730   -0.8160   33.7240 C   0  0  0  0  0
   43.3290   -0.8750   32.3480 C   0  0  0  0  0
   43.6260    0.2980   31.6680 O   0  0  0  0  0
   43.2480    0.3090   34.5250 C   0  0  0  0  0
   42.2110    0.9560   35.2490 C   0  0  0  0  0
   42.5030    2.0760   36.0450 C   0  0  0  0  0
   43.7880    2.5620   36.1310 C   0  0  0  0  0
   44.8120    1.9560   35.4430 C   0  0  0  0  0
   44.5460    0.8330   34.6440 C   0  0  0  0  0
   40.9080    0.4890   35.1840 O   0  0  0  0  0
   39.7830    1.3260   35.4890 C   0  0  0  0  0
   44.9220   -1.1560   25.1040 H   0  0  0  0  0
   44.7730    0.1450   27.2070 H   0  0  0  0  0
   43.6010   -4.7140   27.2220 H   0  0  0  0  0
   43.5690   -5.4380   25.5450 H   0  0  0  0  0
   43.9360   -5.6240   23.9000 H   0  0  0  0  0
   45.2360   -2.2650   23.7200 H   0  0  0  0  0
   44.9680   -3.6720   22.7970 H   0  0  0  0  0
   44.0440   -0.2330   29.8910 H   0  0  0  0  0
   42.8210   -4.1860   31.8660 H   0  0  0  0  0
   42.8620   -5.2470   34.1920 H   0  0  0  0  0
   42.8690   -3.3710   36.4180 H   0  0  0  0  0
   41.4030   -4.2690   36.6150 H   0  0  0  0  0
   42.5050   -1.8740   35.4240 H   0  0  0  0  0
   38.9790    1.1130   34.7990 H   0  0  0  0  0
   40.0330    2.3770   35.4200 H   0  0  0  0  0
   39.4460    1.1090   36.4950 H   0  0  0  0  0
   41.7230    2.5770   36.5990 H   0  0  0  0  0
   43.9840    3.4270   36.7510 H   0  0  0  0  0
   45.8120    2.3520   35.5250 H   0  0  0  0  0
   45.3540    0.3680   34.1020 H   0  0  0  0  0
   43.7745    0.1019   30.7504 H   0  0  0  0  0
  1  2  4  0  0  0
  1  6  4  0  0  0
  1  7  1  0  0  0
  2  3  4  0  0  0
  2 36  1  0  0  0
  3  4  4  0  0  0
  3 37  1  0  0  0
  4  5  4  0  0  0
  4 10  1  0  0  0
  5  6  4  0  0  0
  5 11  1  0  0  0
  6 38  1  0  0  0
  7  8  1  0  0  0
  7  9  1  0  0  0
  8 39  1  0  0  0
  8 40  1  0  0  0
  9 41  1  0  0  0
  9 42  1  0  0  0
 10 12  1  0  0  0
 10 43  1  0  0  0
 11 12  2  0  0  0
 12 13  1  0  0  0
 13 14  4  0  0  0
 13 26  4  0  0  0
 14 15  4  0  0  0
 14 44  1  0  0  0
 15 16  1  0  0  0
 15 24  4  0  0  0
 16 17  1  0  0  0
 16 20  1  0  0  0
 16 45  1  0  0  0
 17 18  1  0  0  0
 17 19  2  0  0  0
 20 21  1  0  0  0
 20 46  1  0  0  0
 20 47  1  0  0  0
 21 22  2  0  0  0
 21 23  1  0  0  0
 24 25  4  0  0  0
 24 48  1  0  0  0
 25 26  4  0  0  0
 25 28  1  0  0  0
 26 27  1  0  0  0
 28 29  4  0  0  0
 28 33  4  0  0  0
 29 30  4  0  0  0
 29 34  1  0  0  0
 30 31  4  0  0  0
 30 52  1  0  0  0
 31 32  4  0  0  0
 31 53  1  0  0  0
 32 33  4  0  0  0
 32 54  1  0  0  0
 33 55  1  0  0  0
 34 35  1  0  0  0
 35 49  1  0  0  0
 35 50  1  0  0  0
 35 51  1  0  0  0
 27 56  1  0  0  0
M  END
$$$$
