### 
### Created by X-TOOL on Mon Oct 24 22:27:20 2005
### 

@<TRIPOS>MOLECULE
1o2z_ligand
   56    59     1     0     0
SMALL
GAST_HUCK


@<TRIPOS>ATOM
      1 C1         44.2790   -3.0530   25.9510 C.ar      1 SUB1        0.171
      2 C2         44.5940   -1.6590   25.9970 C.ar      1 SUB1       -0.020
      3 C3         44.5240   -0.9070   27.1850 C.ar      1 SUB1       -0.036
      4 C4         44.1120   -1.5700   28.3210 C.ar      1 SUB1        0.081
      5 C5         43.7890   -2.8720   28.3250 C.ar      1 SUB1        0.034
      6 C6         43.8590   -3.6650   27.1730 C.ar      1 SUB1       -0.007
      7 C7         44.3530   -3.7730   24.7400 C.cat     1 SUB1        0.310
      8 N1         43.9120   -5.0160   24.6900 N.pl3     1 SUB1       -0.201
      9 N2         44.8650   -3.2000   23.6670 N.pl3     1 SUB1       -0.201
     10 N3         43.9270   -1.1470   29.5270 N.pl3     1 SUB1       -0.251
     11 N4         43.4130   -3.2960   29.5200 N.2       1 SUB1       -0.310
     12 C8         43.5260   -2.1690   30.2190 C.2       1 SUB1        0.135
     13 C1'        43.2490   -2.0920   31.6190 C.ar      1 SUB1        0.060
     14 C2'        42.8920   -3.2290   32.3650 C.ar      1 SUB1       -0.047
     15 C3'        42.6230   -3.1660   33.7340 C.ar      1 SUB1       -0.029
     16 C31'       42.2290   -4.4390   34.5270 C.3       1 SUB1        0.038
     17 C32'       40.7860   -4.7230   34.0640 C.2       1 SUB1        0.041
     18 O33'       40.6870   -5.4970   33.1190 O.co2     1 SUB1       -0.566
     19 O34'       39.8600   -4.1650   34.6370 O.co2     1 SUB1       -0.566
     20 C42'       42.3800   -4.2920   36.1480 C.3       1 SUB1        0.009
     21 C43'       43.2280   -5.4210   36.8500 C.2       1 SUB1        0.033
     22 O44'       43.0690   -6.5880   36.5120 O.co2     1 SUB1       -0.566
     23 O45'       44.0240   -5.0800   37.7240 O.co2     1 SUB1       -0.566
     24 C4'        42.7200   -1.9600   34.3720 C.ar      1 SUB1       -0.054
     25 C5'        43.0730   -0.8160   33.7240 C.ar      1 SUB1        0.011
     26 C6'        43.3290   -0.8750   32.3480 C.ar      1 SUB1        0.112
     27 O6'        43.6260    0.2980   31.6680 O.3       1 SUB1       -0.328
     28 C1''       43.2480    0.3090   34.5250 C.ar      1 SUB1        0.009
     29 C2''       42.2110    0.9560   35.2490 C.ar      1 SUB1        0.098
     30 C3''       42.5030    2.0760   36.0450 C.ar      1 SUB1       -0.033
     31 C4''       43.7880    2.5620   36.1310 C.ar      1 SUB1       -0.072
     32 C5''       44.8120    1.9560   35.4430 C.ar      1 SUB1       -0.074
     33 C6''       44.5460    0.8330   34.6440 C.ar      1 SUB1       -0.064
     34 O2''       40.9080    0.4890   35.1840 O.3       1 SUB1       -0.320
     35 CME        39.7830    1.3260   35.4890 C.3       1 SUB1        0.060
     36 H21        44.9220   -1.1560   25.1040 H         1 SUB1        0.059
     37 H31        44.7730    0.1450   27.2070 H         1 SUB1        0.055
     38 H61        43.6010   -4.7140   27.2220 H         1 SUB1        0.060
     39 H81        43.5690   -5.4380   25.5450 H         1 SUB1        0.192
     40 H82        43.9360   -5.6240   23.9000 H         1 SUB1        0.192
     41 H91        45.2360   -2.2650   23.7200 H         1 SUB1        0.192
     42 H92        44.9680   -3.6720   22.7970 H         1 SUB1        0.192
     43 H101       44.0440   -0.2330   29.8910 H         1 SUB1        0.230
     44 H141       42.8210   -4.1860   31.8660 H         1 SUB1        0.057
     45 H161       42.8620   -5.2470   34.1920 H         1 SUB1        0.071
     46 H201       42.8690   -3.3710   36.4180 H         1 SUB1        0.054
     47 H202       41.4030   -4.2690   36.6150 H         1 SUB1        0.054
     48 H241       42.5050   -1.8740   35.4240 H         1 SUB1        0.056
     49 H351       38.9790    1.1130   34.7990 H         1 SUB1        0.058
     50 H352       40.0330    2.3770   35.4200 H         1 SUB1        0.058
     51 H353       39.4460    1.1090   36.4950 H         1 SUB1        0.058
     52 H301       41.7230    2.5770   36.5990 H         1 SUB1        0.054
     53 H311       43.9840    3.4270   36.7510 H         1 SUB1        0.058
     54 H321       45.8120    2.3520   35.5250 H         1 SUB1        0.052
     55 H331       45.3540    0.3680   34.1020 H         1 SUB1        0.058
     56 H271       43.7745    0.1019   30.7504 H         1 SUB1        0.251
@<TRIPOS>BOND
     1    1    2 ar 
     2    1    6 ar 
     3    1    7 1  
     4    2    3 ar 
     5    2   36 1  
     6    3    4 ar 
     7    3   37 1  
     8    4    5 ar 
     9    4   10 1  
    10    5    6 ar 
    11    5   11 1  
    12    6   38 1  
    13    7    8 1  
    14    7    9 1  
    15    8   39 1  
    16    8   40 1  
    17    9   41 1  
    18    9   42 1  
    19   10   12 1  
    20   10   43 1  
    21   11   12 2  
    22   12   13 1  
    23   13   14 ar 
    24   13   26 ar 
    25   14   15 ar 
    26   14   44 1  
    27   15   16 1  
    28   15   24 ar 
    29   16   17 1  
    30   16   20 1  
    31   16   45 1  
    32   17   18 2  
    33   17   19 2  
    34   20   21 1  
    35   20   46 1  
    36   20   47 1  
    37   21   22 2  
    38   21   23 2  
    39   24   25 ar 
    40   24   48 1  
    41   25   26 ar 
    42   25   28 1  
    43   26   27 1  
    44   28   29 ar 
    45   28   33 ar 
    46   29   30 ar 
    47   29   34 1  
    48   30   31 ar 
    49   30   52 1  
    50   31   32 ar 
    51   31   53 1  
    52   32   33 ar 
    53   32   54 1  
    54   33   55 1  
    55   34   35 1  
    56   35   49 1  
    57   35   50 1  
    58   35   51 1  
    59   27   56 1  
@<TRIPOS>SUBSTRUCTURE
     1 SUB1        1 GROUP

