1bra_ligand
  -I-interpret- 

 18 18  0  0  0  0  0  0  0  0999 V2000
    7.8294   48.8730   58.0313 H   0  0  0  0  0
    8.0400   46.5344   57.1651 H   0  0  0  0  0
    8.4134   46.2059   54.7088 H   0  0  0  0  0
    8.3484   48.1677   53.1847 H   0  0  0  0  0
    8.0260   50.4470   54.0962 H   0  0  0  0  0
    7.5737   52.0692   58.3867 H   0  0  0  0  0
    7.8519   50.3107   58.4994 H   0  0  0  0  0
    7.3884   51.9532   54.7810 H   0  0  0  0  0
    7.3259   53.0343   56.1988 H   0  0  0  0  0
    7.7880   49.7690   56.0970 C   0  0  0  0  0
    7.8850   48.6980   56.9630 C   0  0  0  0  0
    8.0550   47.3800   56.4870 C   0  0  0  0  0
    8.2440   47.1990   55.1090 C   0  0  0  0  0
    8.2130   48.3080   54.2510 C   0  0  0  0  0
    8.0090   49.5910   54.7610 C   0  0  0  0  0
    7.6200   51.0570   56.5970 C   0  3  0  0  0
    7.6870   51.1530   57.9300 N   0  0  0  0  0
    7.4310   52.0900   55.8010 N   0  0  0  0  0
 11  1  1  0  0  0
 12  2  1  0  0  0
 13  3  1  0  0  0
 14  4  1  0  0  0
 15  5  1  0  0  0
 17  6  1  0  0  0
 17  7  1  0  0  0
 18  8  1  0  0  0
 18  9  1  0  0  0
 10 11  4  0  0  0
 10 15  4  0  0  0
 16 10  1  0  0  0
 11 12  4  0  0  0
 12 13  4  0  0  0
 14 13  4  0  0  0
 15 14  4  0  0  0
 16 17  1  0  0  0
 16 18  1  0  0  0
M  END
$$$$
