1qi0_ligand
  -I-interpret- 

 45 46  0  0  0  0  0  0  0  0999 V2000
   -4.0600   43.0330   12.2230 C   0  0  0  0  0
   -5.1400   41.9280   11.8490 C   0  0  0  0  0
   -6.6030   42.5000   11.8490 C   0  0  0  0  0
   -6.8940   43.2440   13.1880 C   0  0  0  0  0
   -5.7720   44.2850   13.4930 C   0  0  0  0  0
   -5.8720   44.8640   14.9210 C   0  0  0  0  0
   -4.8360   41.3570   10.5850 O   0  0  0  0  0
   -7.5630   41.4460   11.7340 O   0  0  0  0  0
   -8.1840   43.8540   13.1520 O   0  0  0  0  0
   -4.4890   43.6360   13.4390 O   0  0  0  0  0
   -5.9580   44.0060   16.0440 O   0  0  0  0  0
    1.2970   43.5920   12.3250 C   0  0  0  0  0
    0.5970   43.5450   13.7080 C   0  0  0  0  0
   -0.7430   42.7430   13.6790 C   0  0  0  0  0
   -1.6420   43.1720   12.4470 C   0  0  0  0  0
   -0.7580   43.0880   11.1300 C   0  0  0  0  0
   -1.5500   43.5930    9.8950 C   0  0  0  0  0
    2.2940   44.5890   12.2370 O   0  0  0  0  0
    1.5020   43.0460   14.6760 O   0  0  0  0  0
   -1.4850   42.8710   14.8870 O   0  0  0  0  0
   -2.8070   42.3850   12.4090 O   0  0  0  0  0
    0.4240   43.8860   11.2420 O   0  0  0  0  0
   -2.1380   44.8600   10.1420 O   0  0  0  0  0
   -3.9815   43.7883   11.4272 H   0  0  0  0  0
   -5.0881   41.1339   12.6084 H   0  0  0  0  0
   -6.7156   43.1963   11.0049 H   0  0  0  0  0
   -6.8943   42.5007   13.9989 H   0  0  0  0  0
   -5.8253   45.0982   12.7542 H   0  0  0  0  0
   -6.7704   45.4984   14.9407 H   0  0  0  0  0
   -4.9788   45.4884   15.0703 H   0  0  0  0  0
   -3.9761   40.9544   10.6192 H   0  0  0  0  0
   -8.4384   41.8149   11.7361 H   0  0  0  0  0
   -8.8457   43.1852   13.0202 H   0  0  0  0  0
   -6.0124   44.5276   16.8362 H   0  0  0  0  0
    1.7556   42.6061   12.1586 H   0  0  0  0  0
    0.3464   44.5788   13.9881 H   0  0  0  0  0
   -0.4866   41.6803   13.5567 H   0  0  0  0  0
   -1.9511   44.2191   12.5813 H   0  0  0  0  0
   -0.4701   42.0384   10.9705 H   0  0  0  0  0
   -2.3441   42.8696    9.6584 H   0  0  0  0  0
   -0.8639   43.6772    9.0394 H   0  0  0  0  0
    2.7309   44.5250   11.3958 H   0  0  0  0  0
    2.2994   43.5620   14.6580 H   0  0  0  0  0
   -2.2514   42.3111   14.8474 H   0  0  0  0  0
   -2.6148   45.1424    9.3703 H   0  0  0  0  0
  1 21  1  0  0  0
  1 10  1  0  0  0
  1  2  1  0  0  0
  2  7  1  0  0  0
  2  3  1  0  0  0
  3  8  1  0  0  0
  3  4  1  0  0  0
  4  9  1  0  0  0
  4  5  1  0  0  0
  5 10  1  0  0  0
  5  6  1  0  0  0
  6 11  1  0  0  0
 21 15  1  0  0  0
 15 16  1  0  0  0
 15 14  1  0  0  0
 14 20  1  0  0  0
 14 13  1  0  0  0
 13 19  1  0  0  0
 13 12  1  0  0  0
 12 22  1  0  0  0
 12 18  1  0  0  0
 22 16  1  0  0  0
 16 17  1  0  0  0
 17 23  1  0  0  0
  1 24  1  0  0  0
  2 25  1  0  0  0
  3 26  1  0  0  0
  4 27  1  0  0  0
  5 28  1  0  0  0
  6 29  1  0  0  0
  6 30  1  0  0  0
  7 31  1  0  0  0
  8 32  1  0  0  0
  9 33  1  0  0  0
 11 34  1  0  0  0
 12 35  1  0  0  0
 13 36  1  0  0  0
 14 37  1  0  0  0
 15 38  1  0  0  0
 16 39  1  0  0  0
 17 40  1  0  0  0
 17 41  1  0  0  0
 18 42  1  0  0  0
 19 43  1  0  0  0
 20 44  1  0  0  0
 23 45  1  0  0  0
M  END
$$$$
