### 
### Created by X-TOOL on Tue Oct 25 02:04:07 2005
### 

@<TRIPOS>MOLECULE
1bzc_ligand
   43    44     1     0     0
SMALL
GAST_HUCK


@<TRIPOS>ATOM
      1 P         -20.5280   58.4430   12.0690 P.3       1 SUB1        0.101
      2 O1        -20.4410   56.9790   11.4600 O.co2     1 SUB1       -0.548
      3 O2        -21.3340   59.3230   11.1980 O.co2     1 SUB1       -0.548
      4 O3        -19.0690   59.0410   12.2460 O.co2     1 SUB1       -0.548
      5 C1        -21.3330   58.3720   13.6690 C.3       1 SUB1        0.270
      6 C2        -20.8740   56.1310   14.8470 C.ar      1 SUB1       -0.015
      7 C3        -20.6170   57.5140   14.7150 C.ar      1 SUB1        0.019
      8 C4        -19.7250   58.1450   15.6010 C.ar      1 SUB1       -0.045
      9 C5        -19.1000   57.4250   16.6180 C.ar      1 SUB1       -0.039
     10 C6        -18.7540   55.3570   17.8170 C.ar      1 SUB1       -0.021
     11 C7        -18.9980   53.9910   18.0000 C.ar      1 SUB1        0.062
     12 C8        -19.8620   53.3130   17.1080 C.ar      1 SUB1       -0.031
     13 C9        -20.4890   54.0160   16.0500 C.ar      1 SUB1       -0.034
     14 C10       -20.2440   55.3950   15.8790 C.ar      1 SUB1        0.021
     15 C11       -19.3650   56.0590   16.7660 C.ar      1 SUB1        0.007
     16 C12       -18.3240   53.2680   19.1560 C.2       1 SUB1        0.215
     17 O4        -17.6080   53.9250   19.9000 O.2       1 SUB1       -0.380
     18 N1        -18.5390   51.8320   19.3520 N.am      1 SUB1       -0.263
     19 C13       -17.8240   51.2530   20.5000 C.3       1 SUB1        0.133
     20 C14       -16.3230   51.4180   20.5180 C.2       1 SUB1        0.199
     21 N2        -15.7240   52.0710   21.6630 N.am      1 SUB1       -0.299
     22 O5        -15.6210   50.9870   19.6170 O.2       1 SUB1       -0.395
     23 C15       -18.1420   49.7480   20.6410 C.3       1 SUB1       -0.001
     24 C16       -19.6280   49.5050   20.9440 C.3       1 SUB1       -0.010
     25 C17       -19.8660   48.0310   21.0820 C.2       1 SUB1        0.028
     26 O6        -21.1390   47.6770   21.2330 O.co2     1 SUB1       -0.567
     27 O7        -18.9550   47.2040   21.0680 O.co2     1 SUB1       -0.567
     28 F1        -21.4420   59.6270   14.1640 F         1 SUB1       -0.250
     29 F2        -22.5530   57.8710   13.4660 F         1 SUB1       -0.250
     30 H61       -21.5510   55.6355   14.1606 H         1 SUB1        0.102
     31 H81       -19.5211   59.2040   15.4916 H         1 SUB1        0.072
     32 H91       -18.4112   57.9216   17.2918 H         1 SUB1        0.067
     33 H101      -18.0865   55.8782   18.4937 H         1 SUB1        0.072
     34 H121      -20.0448   52.2520   17.2346 H         1 SUB1        0.068
     35 H131      -21.1561   53.4952   15.3727 H         1 SUB1        0.073
     36 H181      -19.1259   51.2880   18.7523 H         1 SUB1        0.188
     37 H191      -18.2099   51.7661   21.3932 H         1 SUB1        0.080
     38 H211      -14.7327   52.1958   21.7055 H         1 SUB1        0.182
     39 H212      -16.3016   52.3973   22.4113 H         1 SUB1        0.182
     40 H231      -17.5387   49.3319   21.4613 H         1 SUB1        0.035
     41 H232      -17.8826   49.2396   19.7007 H         1 SUB1        0.035
     42 H241      -20.2413   49.9017   20.1215 H         1 SUB1        0.049
     43 H242      -19.9003   50.0114   21.8817 H         1 SUB1        0.049
@<TRIPOS>BOND
     1    1    5 1  
     2    1    4 2  
     3    1    3 2  
     4    1    2 2  
     5    5    7 1  
     6    7    6 ar 
     7    7    8 ar 
     8    8    9 ar 
     9    9   15 ar 
    10   15   14 ar 
    11   15   10 ar 
    12   10   11 ar 
    13   11   16 1  
    14   11   12 ar 
    15   12   13 ar 
    16   13   14 ar 
    17   14    6 ar 
    18   16   18 am 
    19   16   17 2  
    20   18   19 1  
    21   19   23 1  
    22   19   20 1  
    23   20   22 2  
    24   20   21 am 
    25   23   24 1  
    26   24   25 1  
    27   25   27 2  
    28   25   26 2  
    29    5   29 1  
    30    5   28 1  
    31    6   30 1  
    32    8   31 1  
    33    9   32 1  
    34   10   33 1  
    35   12   34 1  
    36   13   35 1  
    37   18   36 1  
    38   19   37 1  
    39   21   38 1  
    40   21   39 1  
    41   23   40 1  
    42   23   41 1  
    43   24   42 1  
    44   24   43 1  
@<TRIPOS>SUBSTRUCTURE
     1 SUB1        1 GROUP

