### 
### Created by X-TOOL on Sun Jun  3 11:31:39 2007
### 

@<TRIPOS>MOLECULE
2j34_ligand
   52    55     1     0     0
SMALL
GAST_HUCK


@<TRIPOS>ATOM
      1 CL         13.7680    7.3080   26.6650 Cl        1 SUB1       -0.076
      2 C1         12.0620    7.5350   26.3870 C.ar      1 SUB1        0.032
      3 C2         11.6350    8.1390   25.1910 C.ar      1 SUB1       -0.036
      4 C3         10.2390    8.3210   24.9260 C.ar      1 SUB1        0.040
      5 C4          9.3090    7.8670   25.8950 C.ar      1 SUB1       -0.023
      6 C5          7.9530    8.1060   25.5240 C.2       1 SUB1       -0.033
      7 C9          9.7370    7.2670   27.1030 C.ar      1 SUB1       -0.066
      8 C10        11.1190    7.0970   27.3590 C.ar      1 SUB1       -0.058
      9 C6          7.9630    8.7240   24.2400 C.2       1 SUB1        0.166
     10 S1          6.4580    9.1250   23.4830 S.o2      1 SUB1        0.083
     11 O2          5.4740    9.1170   24.5050 O.2       1 SUB1       -0.148
     12 O1          6.5920   10.3140   22.6940 O.2       1 SUB1       -0.148
     13 N1          6.0530    8.0100   22.3610 N.am      1 SUB1       -0.224
     14 C12         6.1290    6.5490   22.5640 C.3       1 SUB1        0.129
     15 C13         4.7840    5.8390   22.3370 C.3       1 SUB1        0.005
     16 C14         5.1260    4.5170   21.6280 C.3       1 SUB1        0.041
     17 C15         7.1340    5.7510   21.7220 C.2       1 SUB1        0.203
     18 O3          8.2730    6.1080   21.4510 O.2       1 SUB1       -0.395
     19 N2          6.5620    4.5870   21.3350 N.am      1 SUB1       -0.250
     20 C16         7.3350    3.4890   20.6800 C.3       1 SUB1        0.131
     21 C17         7.0070    2.0910   21.2540 C.3       1 SUB1       -0.024
     22 C18         7.1130    3.4600   19.1730 C.2       1 SUB1        0.204
     23 O4          6.1400    4.0560   18.7300 O.2       1 SUB1       -0.394
     24 N3          8.0040    2.7860   18.3790 N.am      1 SUB1       -0.267
     25 C19         7.7220    2.7270   16.9360 C.3       1 SUB1        0.057
     26 C20         8.9900    2.7460   16.0710 C.3       1 SUB1        0.068
     27 O5          9.9140    1.7640   16.5410 O.3       1 SUB1       -0.376
     28 C22        10.3830    2.0710   17.8490 C.3       1 SUB1        0.068
     29 C23         9.2290    2.0910   18.8520 C.3       1 SUB1        0.057
     30 S2          9.5280    9.0060   23.5500 S.3       1 SUB1       -0.009
     31 H          12.3720    8.4713   24.4599 H         1 SUB1        0.058
     32 H           7.0703    7.8608   26.1146 H         1 SUB1        0.044
     33 H           9.0023    6.9355   27.8368 H         1 SUB1        0.057
     34 H          11.4563    6.6370   28.2878 H         1 SUB1        0.056
     35 H           5.7243    8.3462   21.4559 H         1 SUB1        0.171
     36 H           6.4663    6.5396   23.6004 H         1 SUB1        0.075
     37 H           4.1086    6.4489   21.7370 H         1 SUB1        0.033
     38 H           4.2637    5.6624   23.2784 H         1 SUB1        0.033
     39 H           4.5393    4.3892   20.7183 H         1 SUB1        0.053
     40 H           4.8882    3.6563   22.2531 H         1 SUB1        0.053
     41 H           8.3798    3.7136   20.8944 H         1 SUB1        0.080
     42 H           7.2422    2.0722   22.3182 H         1 SUB1        0.028
     43 H           5.9471    1.8805   21.1111 H         1 SUB1        0.028
     44 H           7.6013    1.3383   20.7359 H         1 SUB1        0.028
     45 H           7.1330    3.6072   16.6782 H         1 SUB1        0.054
     46 H           7.2018    1.7896   16.7391 H         1 SUB1        0.054
     47 H           9.4514    3.7317   16.1313 H         1 SUB1        0.058
     48 H           8.7236    2.5234   15.0378 H         1 SUB1        0.058
     49 H          10.8495    3.0560   17.8318 H         1 SUB1        0.058
     50 H          11.0984    1.3069   18.1531 H         1 SUB1        0.058
     51 H           8.9524    1.0530   19.0368 H         1 SUB1        0.054
     52 H           9.5817    2.6334   19.7292 H         1 SUB1        0.054
@<TRIPOS>BOND
     1    1    2 1  
     2    2    3 ar 
     3    2    8 ar 
     4    3    4 ar 
     5    4    5 ar 
     6    4   30 1  
     7    5    6 1  
     8    5    7 ar 
     9    6    9 2  
    10    7    8 ar 
    11    9   10 1  
    12    9   30 1  
    13   10   11 2  
    14   10   12 2  
    15   10   13 1  
    16   13   14 1  
    17   14   15 1  
    18   14   17 1  
    19   15   16 1  
    20   16   19 1  
    21   17   18 2  
    22   17   19 am 
    23   19   20 1  
    24   20   21 1  
    25   20   22 1  
    26   22   23 2  
    27   22   24 am 
    28   24   25 1  
    29   24   29 1  
    30   25   26 1  
    31   26   27 1  
    32   27   28 1  
    33   28   29 1  
    34    3   31 1  
    35    6   32 1  
    36    7   33 1  
    37    8   34 1  
    38   13   35 1  
    39   14   36 1  
    40   15   37 1  
    41   15   38 1  
    42   16   39 1  
    43   16   40 1  
    44   20   41 1  
    45   21   42 1  
    46   21   43 1  
    47   21   44 1  
    48   25   45 1  
    49   25   46 1  
    50   26   47 1  
    51   26   48 1  
    52   28   49 1  
    53   28   50 1  
    54   29   51 1  
    55   29   52 1  
@<TRIPOS>SUBSTRUCTURE
     1 SUB1        1 GROUP

