2j34_ligand
  -I-interpret- 

 52 55  0  0  0  0  0  0  0  0999 V2000
   13.7680    7.3080   26.6650 Cl  0  0  0  0  0
   12.0620    7.5350   26.3870 C   0  0  0  0  0
   11.6350    8.1390   25.1910 C   0  0  0  0  0
   10.2390    8.3210   24.9260 C   0  0  0  0  0
    9.3090    7.8670   25.8950 C   0  0  0  0  0
    7.9530    8.1060   25.5240 C   0  0  0  0  0
    9.7370    7.2670   27.1030 C   0  0  0  0  0
   11.1190    7.0970   27.3590 C   0  0  0  0  0
    7.9630    8.7240   24.2400 C   0  0  0  0  0
    6.4580    9.1250   23.4830 S   0  0  0  0  0
    5.4740    9.1170   24.5050 O   0  0  0  0  0
    6.5920   10.3140   22.6940 O   0  0  0  0  0
    6.0530    8.0100   22.3610 N   0  0  0  0  0
    6.1290    6.5490   22.5640 C   0  0  0  0  0
    4.7840    5.8390   22.3370 C   0  0  0  0  0
    5.1260    4.5170   21.6280 C   0  0  0  0  0
    7.1340    5.7510   21.7220 C   0  0  0  0  0
    8.2730    6.1080   21.4510 O   0  0  0  0  0
    6.5620    4.5870   21.3350 N   0  0  0  0  0
    7.3350    3.4890   20.6800 C   0  0  0  0  0
    7.0070    2.0910   21.2540 C   0  0  0  0  0
    7.1130    3.4600   19.1730 C   0  0  0  0  0
    6.1400    4.0560   18.7300 O   0  0  0  0  0
    8.0040    2.7860   18.3790 N   0  0  0  0  0
    7.7220    2.7270   16.9360 C   0  0  0  0  0
    8.9900    2.7460   16.0710 C   0  0  0  0  0
    9.9140    1.7640   16.5410 O   0  0  0  0  0
   10.3830    2.0710   17.8490 C   0  0  0  0  0
    9.2290    2.0910   18.8520 C   0  0  0  0  0
    9.5280    9.0060   23.5500 S   0  0  0  0  0
   12.3720    8.4713   24.4599 H   0  0  0  0  0
    7.0703    7.8608   26.1146 H   0  0  0  0  0
    9.0023    6.9355   27.8368 H   0  0  0  0  0
   11.4563    6.6370   28.2878 H   0  0  0  0  0
    5.7243    8.3462   21.4559 H   0  0  0  0  0
    6.4663    6.5396   23.6004 H   0  0  0  0  0
    4.1086    6.4489   21.7370 H   0  0  0  0  0
    4.2637    5.6624   23.2784 H   0  0  0  0  0
    4.5393    4.3892   20.7183 H   0  0  0  0  0
    4.8882    3.6563   22.2531 H   0  0  0  0  0
    8.3798    3.7136   20.8944 H   0  0  0  0  0
    7.2422    2.0722   22.3182 H   0  0  0  0  0
    5.9471    1.8805   21.1111 H   0  0  0  0  0
    7.6013    1.3383   20.7359 H   0  0  0  0  0
    7.1330    3.6072   16.6782 H   0  0  0  0  0
    7.2018    1.7896   16.7391 H   0  0  0  0  0
    9.4514    3.7317   16.1313 H   0  0  0  0  0
    8.7236    2.5234   15.0378 H   0  0  0  0  0
   10.8495    3.0560   17.8318 H   0  0  0  0  0
   11.0984    1.3069   18.1531 H   0  0  0  0  0
    8.9524    1.0530   19.0368 H   0  0  0  0  0
    9.5817    2.6334   19.7292 H   0  0  0  0  0
  1  2  1  0  0  0
  2  3  4  0  0  0
  2  8  4  0  0  0
  3  4  4  0  0  0
  4  5  4  0  0  0
  4 30  1  0  0  0
  5  6  1  0  0  0
  5  7  4  0  0  0
  6  9  2  0  0  0
  7  8  4  0  0  0
  9 10  1  0  0  0
  9 30  1  0  0  0
 10 11  2  0  0  0
 10 12  2  0  0  0
 10 13  1  0  0  0
 13 14  1  0  0  0
 14 15  1  0  0  0
 14 17  1  0  0  0
 15 16  1  0  0  0
 16 19  1  0  0  0
 17 18  2  0  0  0
 17 19  1  0  0  0
 19 20  1  0  0  0
 20 21  1  0  0  0
 20 22  1  0  0  0
 22 23  2  0  0  0
 22 24  1  0  0  0
 24 25  1  0  0  0
 24 29  1  0  0  0
 25 26  1  0  0  0
 26 27  1  0  0  0
 27 28  1  0  0  0
 28 29  1  0  0  0
  3 31  1  0  0  0
  6 32  1  0  0  0
  7 33  1  0  0  0
  8 34  1  0  0  0
 13 35  1  0  0  0
 14 36  1  0  0  0
 15 37  1  0  0  0
 15 38  1  0  0  0
 16 39  1  0  0  0
 16 40  1  0  0  0
 20 41  1  0  0  0
 21 42  1  0  0  0
 21 43  1  0  0  0
 21 44  1  0  0  0
 25 45  1  0  0  0
 25 46  1  0  0  0
 26 47  1  0  0  0
 26 48  1  0  0  0
 28 49  1  0  0  0
 28 50  1  0  0  0
 29 51  1  0  0  0
 29 52  1  0  0  0
M  END
$$$$
