### 
### Created by X-TOOL on Mon Oct 24 23:39:19 2005
### 

@<TRIPOS>MOLECULE
5tmp_ligand
   81    85     1     0     0
SMALL
GAST_HUCK


@<TRIPOS>ATOM
      1 N1T        24.8300  100.6090   17.6250 N.am      1 SUB1       -0.174
      2 C2T        25.8020   99.7770   18.1640 C.2       1 SUB1        0.326
      3 O2T        25.7460   99.3870   19.3310 O.2       1 SUB1       -0.384
      4 N3T        26.7930   99.3400   17.2530 N.am      1 SUB1       -0.186
      5 C4T        26.6890   99.4790   15.8470 C.2       1 SUB1        0.193
      6 O4T        27.4850   98.9250   15.0980 O.2       1 SUB1       -0.408
      7 C5T        25.6490  100.3330   15.3660 C.2       1 SUB1        0.023
      8 C6T        24.7850  100.8990   16.2530 C.2       1 SUB1        0.052
      9 C7T        25.5690  100.6330   13.8470 C.3       1 SUB1       -0.044
     10 C5'        20.5790  102.5880   17.7280 C.3       1 SUB1        0.092
     11 O5'        21.2390  103.3060   16.7350 O.3       1 SUB1       -0.318
     12 C4'        21.7040  101.9290   18.4960 C.3       1 SUB1        0.146
     13 O4'        22.5950  101.1600   17.6420 O.3       1 SUB1       -0.336
     14 C3'        22.5490  102.7390   19.4510 C.3       1 SUB1        0.252
     15 C2'        23.9110  102.3080   19.0590 C.3       1 SUB1        0.063
     16 C1'        23.7320  100.9700   18.4870 C.3       1 SUB1        0.178
     17 NA3        22.3430  102.2420   20.8140 N.2       1 SUB1        0.172
     18 N3B        22.7990  102.9190   21.7370 N.1       1 SUB1        0.130
     19 N3C        23.1510  103.4250   22.6750 N.1       1 SUB1        0.233
     20 PA         20.5170  104.1380   15.6090 P.3       1 SUB1        0.297
     21 O1P        19.5160  103.3130   14.8790 O.co2     1 SUB1       -0.533
     22 O2P        21.3720  105.0780   14.8310 O.co2     1 SUB1       -0.533
     23 OPA        19.8240  104.9620   16.6090 O.3       1 SUB1       -0.252
     24 PB         18.6590  105.9450   16.6280 P.3       1 SUB1        0.321
     25 O3P        19.0540  107.0480   17.5400 O.co2     1 SUB1       -0.532
     26 O4P        17.3590  105.2070   16.7690 O.co2     1 SUB1       -0.532
     27 OPB        18.6140  106.5790   15.1800 O.3       1 SUB1       -0.255
     28 PC         17.8820  107.7370   14.5000 P.3       1 SUB1        0.315
     29 O5P        17.8190  107.5040   13.0530 O.co2     1 SUB1       -0.531
     30 O6P        16.6530  107.9870   15.3210 O.co2     1 SUB1       -0.531
     31 OPC        18.8420  108.9310   14.7940 O.3       1 SUB1       -0.255
     32 PD         18.8090  110.4860   14.6860 P.3       1 SUB1        0.321
     33 O7P        17.3960  110.8900   14.7580 O.co2     1 SUB1       -0.532
     34 O8P        19.5840  110.7240   13.4640 O.co2     1 SUB1       -0.532
     35 OPD        19.5140  111.1720   15.9470 O.3       1 SUB1       -0.252
     36 PE         19.6130  112.6570   16.6440 P.3       1 SUB1        0.297
     37 O9P        20.6360  112.5660   17.6960 O.co2     1 SUB1       -0.533
     38 OAP        19.7390  113.7020   15.5920 O.co2     1 SUB1       -0.533
     39 O5'        18.1990  112.9170   17.3640 O.3       1 SUB1       -0.319
     40 C5'        17.8250  112.2260   18.5350 C.3       1 SUB1        0.089
     41 C4'        16.8740  112.9690   19.4230 C.3       1 SUB1        0.116
     42 O4'        17.5200  114.0150   20.1710 O.3       1 SUB1       -0.336
     43 C3'        15.6490  113.6140   18.6280 C.3       1 SUB1        0.115
     44 O3'        14.4870  113.5780   19.4780 O.3       1 SUB1       -0.386
     45 C2'        16.1420  115.0450   18.4360 C.3       1 SUB1        0.139
     46 O2'        15.1160  116.0470   18.1960 O.3       1 SUB1       -0.384
     47 C1'        16.9690  115.2780   19.7200 C.3       1 SUB1        0.202
     48 N9A        18.0260  116.2850   19.4850 N.pl3     1 SUB1       -0.191
     49 C8A        19.0670  116.3270   18.5740 C.2       1 SUB1        0.110
     50 N7A        19.6880  117.4820   18.5530 N.2       1 SUB1       -0.301
     51 C5A        19.1400  118.1440   19.6700 C.2       1 SUB1        0.105
     52 C6A        19.3950  119.4100   20.2710 C.2       1 SUB1        0.125
     53 N6A        20.3650  120.2290   19.8350 N.pl3     1 SUB1       -0.313
     54 N1A        18.5690  119.8030   21.2910 N.2       1 SUB1       -0.274
     55 C2A        17.5680  118.9980   21.6550 C.2       1 SUB1        0.053
     56 N3A        17.1790  117.8580   21.0830 N.2       1 SUB1       -0.266
     57 C4A        18.0120  117.5000   20.0920 C.2       1 SUB1        0.163
     58 H41        27.6150   98.9076   17.6236 H         1 SUB1        0.226
     59 H81        24.0355  101.5987   15.8861 H         1 SUB1        0.101
     60 H91        26.3565  100.0735   13.3208 H         1 SUB1        0.030
     61 H92        25.7098  101.7108   13.6782 H         1 SUB1        0.030
     62 H93        24.5840  100.3275   13.4643 H         1 SUB1        0.030
     63 H101       19.9993  103.2592   18.3787 H         1 SUB1        0.062
     64 H102       19.9090  101.8344   17.2885 H         1 SUB1        0.062
     65 H121       21.1888  101.1970   19.1354 H         1 SUB1        0.068
     66 H141       22.3815  103.8232   19.3706 H         1 SUB1        0.102
     67 H151       24.3345  102.9951   18.3117 H         1 SUB1        0.037
     68 H152       24.5723  102.2684   19.9371 H         1 SUB1        0.037
     69 H161       23.5703  100.2076   19.2632 H         1 SUB1        0.096
     70 H401       18.7364  112.0115   19.1123 H         1 SUB1        0.062
     71 H402       17.3483  111.2803   18.2375 H         1 SUB1        0.062
     72 H411       16.4663  112.2406   20.1394 H         1 SUB1        0.065
     73 H431       15.4491  113.1103   17.6708 H         1 SUB1        0.065
     74 H441       13.7912  114.0900   19.0830 H         1 SUB1        0.210
     75 H451       16.8135  115.0732   17.5653 H         1 SUB1        0.068
     76 H461       14.5052  116.0538   18.9236 H         1 SUB1        0.210
     77 H471       16.2990  115.6628   20.5030 H         1 SUB1        0.100
     78 H491       19.3425  115.4863   17.9390 H         1 SUB1        0.131
     79 H531       20.5183  121.1370   20.2964 H         1 SUB1        0.182
     80 H532       20.9560  119.9494   19.0391 H         1 SUB1        0.182
     81 H551       16.9979  119.3116   22.5283 H         1 SUB1        0.108
@<TRIPOS>BOND
     1    1   16 1  
     2    1    8 am 
     3    1    2 am 
     4    2    4 am 
     5    2    3 2  
     6    4    5 am 
     7    5    7 1  
     8    5    6 2  
     9    7    9 1  
    10    7    8 2  
    11   16   15 1  
    12   16   13 1  
    13   13   12 1  
    14   12   14 1  
    15   12   10 1  
    16   10   11 1  
    17   11   20 1  
    18   20   23 1  
    19   20   22 2  
    20   20   21 2  
    21   23   24 1  
    22   24   27 1  
    23   24   26 2  
    24   24   25 2  
    25   27   28 1  
    26   28   31 1  
    27   28   30 2  
    28   28   29 2  
    29   31   32 1  
    30   32   35 1  
    31   32   34 2  
    32   32   33 2  
    33   35   36 1  
    34   36   39 1  
    35   36   38 2  
    36   36   37 2  
    37   39   40 1  
    38   40   41 1  
    39   41   43 1  
    40   41   42 1  
    41   42   47 1  
    42   47   48 1  
    43   47   45 1  
    44   45   46 1  
    45   45   43 1  
    46   43   44 1  
    47   48   57 1  
    48   48   49 1  
    49   49   50 2  
    50   50   51 1  
    51   51   57 2  
    52   51   52 1  
    53   52   54 2  
    54   52   53 1  
    55   54   55 1  
    56   55   56 2  
    57   56   57 1  
    58   14   17 1  
    59   14   15 1  
    60   17   18 2  
    61   18   19 2  
    62    4   58 1  
    63    8   59 1  
    64    9   60 1  
    65    9   61 1  
    66    9   62 1  
    67   10   63 1  
    68   10   64 1  
    69   12   65 1  
    70   14   66 1  
    71   15   67 1  
    72   15   68 1  
    73   16   69 1  
    74   40   70 1  
    75   40   71 1  
    76   41   72 1  
    77   43   73 1  
    78   44   74 1  
    79   45   75 1  
    80   46   76 1  
    81   47   77 1  
    82   49   78 1  
    83   53   79 1  
    84   53   80 1  
    85   55   81 1  
@<TRIPOS>SUBSTRUCTURE
     1 SUB1        1 GROUP

