1qsc_ligand
  -I-interpret- 

107108  0  0  0  0  0  0  0  0999 V2000
   35.6410   57.2280   -1.8670 C   0  0  0  0  0
   35.0650   57.5470   -0.8230 O   0  0  0  0  0
   35.8100   58.2390   -2.9970 C   0  0  0  0  0
   36.1350   56.0100   -2.0760 N   0  0  0  0  0
   36.0320   54.9670   -1.0660 C   0  0  0  0  0
   37.1920   55.0250   -0.0810 C   0  0  0  0  0
   38.3020   55.4260   -0.4300 O   0  0  0  0  0
   35.9990   53.5740   -1.7180 C   0  0  0  0  0
   34.7340   53.2760   -2.4950 C   0  0  0  0  0
   34.7630   52.4840   -3.6450 C   0  0  0  0  0
   33.5060   53.8010   -2.0890 C   0  0  0  0  0
   33.6010   52.2320   -4.3700 C   0  0  0  0  0
   32.3420   53.5540   -2.8030 C   0  0  0  0  0
   32.3930   52.7740   -3.9410 C   0  0  0  0  0
   31.2330   52.5510   -4.6480 O   0  0  0  0  0
   36.9340   54.6320    1.1730 N   0  0  0  0  0
   37.8700   54.5810    2.2990 C   0  0  0  0  0
   38.8980   53.5020    1.9740 C   0  0  0  0  0
   38.5880   52.5580    1.2480 O   0  0  0  0  0
   36.9890   54.1380    3.4710 C   0  0  0  0  0
   35.6060   54.4110    3.0240 C   0  0  0  0  0
   35.6130   54.1300    1.5750 C   0  0  0  0  0
   40.1060   53.6320    2.5100 N   0  0  0  0  0
   41.1470   52.6290    2.2940 C   0  0  0  0  0
   41.4090   51.9130    3.6170 C   0  0  0  0  0
   41.6150   52.5560    4.6380 O   0  0  0  0  0
   42.4480   53.2820    1.7920 C   0  0  0  0  0
   42.2030   53.8820    0.4100 C   0  0  0  0  0
   43.5870   52.2590    1.7650 C   0  0  0  0  0
   43.3650   54.6660   -0.1230 C   0  0  0  0  0
   41.3950   50.5840    3.6060 N   0  0  0  0  0
   41.6150   49.8240    4.8360 C   0  0  0  0  0
   43.0280   49.9270    5.3840 C   0  0  0  0  0
   43.9860   50.1430    4.6430 O   0  0  0  0  0
   41.2870   48.3400    4.6210 C   0  0  0  0  0
   39.8630   48.0740    4.1750 C   0  0  0  0  0
   39.5170   46.6030    4.1680 C   0  0  0  0  0
   40.2430   45.7850    3.6100 O   0  0  0  0  0
   38.3930   46.2590    4.7780 N   0  0  0  0  0
   43.1430   49.7770    6.6950 N   0  0  0  0  0
   44.4390   49.7990    7.3580 C   0  0  0  0  0
   45.1400   48.5100    6.9310 C   0  0  0  0  0
   44.4920   47.5730    6.4610 O   0  0  0  0  0
   44.2520   49.8010    8.8770 C   0  0  0  0  0
   43.4130   48.6300    9.3950 C   0  0  0  0  0
   43.2000   48.6670   10.9090 C   0  0  0  0  0
   42.3050   47.9480   11.4030 O   0  5  0  0  0
   43.9260   49.4010   11.6100 O   0  0  0  0  0
   46.4550   48.4560    7.0870 N   0  0  0  0  0
   47.1990   47.2610    6.7030 C   0  0  0  0  0
   47.5240   46.4330    7.9430 C   0  0  0  0  0
   47.4380   45.1860    7.8660 O   0  0  0  0  0
   48.5080   47.6200    5.9710 C   0  0  0  0  0
   49.3570   48.3750    6.8440 O   0  0  0  0  0
   48.2120   48.4410    4.7260 C   0  0  0  0  0
   47.8705   46.9906    9.0185 O   0  5  0  0  0
   36.5863   55.8072   -2.9450 H   0  0  0  0  0
   35.0943   55.1185   -0.5112 H   0  0  0  0  0
   36.1002   52.8200   -0.9236 H   0  0  0  0  0
   36.8525   53.4968   -2.4077 H   0  0  0  0  0
   35.7032   52.0595   -3.9779 H   0  0  0  0  0
   33.4606   54.4149   -1.1967 H   0  0  0  0  0
   33.6371   51.6178   -5.2625 H   0  0  0  0  0
   31.3986   53.9709   -2.4693 H   0  0  0  0  0
   30.5106   52.9916   -4.2161 H   0  0  0  0  0
   38.3552   55.5493    2.4915 H   0  0  0  0  0
   37.2260   54.7175    4.3754 H   0  0  0  0  0
   37.1261   53.0660    3.6761 H   0  0  0  0  0
   35.3382   55.4610    3.2133 H   0  0  0  0  0
   34.8943   53.7519    3.5427 H   0  0  0  0  0
   34.8060   54.6708    1.0591 H   0  0  0  0  0
   35.5175   53.0523    1.3764 H   0  0  0  0  0
   40.3077   54.4332    3.0734 H   0  0  0  0  0
   40.7996   51.9018    1.5453 H   0  0  0  0  0
   42.7272   54.0920    2.4819 H   0  0  0  0  0
   41.3321   54.5511    0.4716 H   0  0  0  0  0
   41.9867   53.0622   -0.2909 H   0  0  0  0  0
   43.7593   51.8753    2.7814 H   0  0  0  0  0
   44.5039   52.7408    1.3946 H   0  0  0  0  0
   43.3161   51.4260    1.0996 H   0  0  0  0  0
   43.5830   55.5048    0.5544 H   0  0  0  0  0
   43.1173   55.0559   -1.1213 H   0  0  0  0  0
   44.2470   54.0125   -0.1931 H   0  0  0  0  0
   41.2322   50.0983    2.7471 H   0  0  0  0  0
   40.9295   50.2259    5.5967 H   0  0  0  0  0
   41.4557   47.8090    5.5694 H   0  0  0  0  0
   41.9681   47.9444    3.8531 H   0  0  0  0  0
   39.7336   48.4703    3.1571 H   0  0  0  0  0
   39.1771   48.5932    4.8605 H   0  0  0  0  0
   37.8248   46.9587    5.2110 H   0  0  0  0  0
   38.1125   45.2995    4.8056 H   0  0  0  0  0
   42.3177   49.6451    7.2440 H   0  0  0  0  0
   45.0194   50.6811    7.0499 H   0  0  0  0  0
   43.7542   50.7388    9.1645 H   0  0  0  0  0
   45.2443   49.7530    9.3492 H   0  0  0  0  0
   43.9250   47.6914    9.1365 H   0  0  0  0  0
   42.4299   48.6590    8.9025 H   0  0  0  0  0
   46.9414   49.2408    7.4711 H   0  0  0  0  0
   46.5718   46.6612    6.0271 H   0  0  0  0  0
   49.0213   46.6925    5.6775 H   0  0  0  0  0
   49.5580   47.8569    7.6145 H   0  0  0  0  0
   48.9795   49.2204    4.6097 H   0  0  0  0  0
   47.2229   48.9122    4.8241 H   0  0  0  0  0
   48.2194   47.7845    3.8435 H   0  0  0  0  0
   36.3445   57.7669   -3.8345 H   0  0  0  0  0
   36.3872   59.1020   -2.6336 H   0  0  0  0  0
   34.8202   58.5770   -3.3377 H   0  0  0  0  0
  1  2  2  0  0  0
  1  3  1  0  0  0
  6  5  1  0  0  0
  5  8  1  0  0  0
  5  4  1  0  0  0
  8  9  1  0  0  0
  9 11  4  0  0  0
  9 10  4  0  0  0
 10 12  4  0  0  0
 12 14  4  0  0  0
 14 15  1  0  0  0
 13 14  4  0  0  0
 11 13  4  0  0  0
  6  7  2  0  0  0
 17 16  1  0  0  0
 17 20  1  0  0  0
 18 17  1  0  0  0
 18 19  2  0  0  0
 20 21  1  0  0  0
 21 22  1  0  0  0
 16 22  1  0  0  0
 25 24  1  0  0  0
 24 27  1  0  0  0
 24 23  1  0  0  0
 27 28  1  0  0  0
 27 29  1  0  0  0
 28 30  1  0  0  0
 25 26  2  0  0  0
 33 32  1  0  0  0
 32 35  1  0  0  0
 32 31  1  0  0  0
 35 36  1  0  0  0
 36 37  1  0  0  0
 37 38  2  0  0  0
 37 39  1  0  0  0
 33 34  2  0  0  0
 42 41  1  0  0  0
 41 44  1  0  0  0
 41 40  1  0  0  0
 44 45  1  0  0  0
 45 46  1  0  0  0
 46 47  1  0  0  0
 46 48  2  0  0  0
 42 43  2  0  0  0
 50 51  1  0  0  0
 50 53  1  0  0  0
 49 50  1  0  0  0
 53 54  1  0  0  0
 53 55  1  0  0  0
 51 52  2  0  0  0
 51 56  1  0  0  0
  4 57  1  0  0  0
  5 58  1  0  0  0
  8 59  1  0  0  0
  8 60  1  0  0  0
 10 61  1  0  0  0
 11 62  1  0  0  0
 12 63  1  0  0  0
 13 64  1  0  0  0
 15 65  1  0  0  0
 17 66  1  0  0  0
 20 67  1  0  0  0
 20 68  1  0  0  0
 21 69  1  0  0  0
 21 70  1  0  0  0
 22 71  1  0  0  0
 22 72  1  0  0  0
 23 73  1  0  0  0
 24 74  1  0  0  0
 27 75  1  0  0  0
 28 76  1  0  0  0
 28 77  1  0  0  0
 29 78  1  0  0  0
 29 79  1  0  0  0
 29 80  1  0  0  0
 30 81  1  0  0  0
 30 82  1  0  0  0
 30 83  1  0  0  0
 31 84  1  0  0  0
 32 85  1  0  0  0
 35 86  1  0  0  0
 35 87  1  0  0  0
 36 88  1  0  0  0
 36 89  1  0  0  0
 39 90  1  0  0  0
 39 91  1  0  0  0
 40 92  1  0  0  0
 41 93  1  0  0  0
 44 94  1  0  0  0
 44 95  1  0  0  0
 45 96  1  0  0  0
 45 97  1  0  0  0
 49 98  1  0  0  0
 50 99  1  0  0  0
 53100  1  0  0  0
 54101  1  0  0  0
 55102  1  0  0  0
 55103  1  0  0  0
 55104  1  0  0  0
  3105  1  0  0  0
  3106  1  0  0  0
  3107  1  0  0  0
  4  1  1  0  0  0
 16  6  1  0  0  0
 23 18  1  0  0  0
 31 25  1  0  0  0
 40 33  1  0  0  0
 42 49  1  0  0  0
M  END
$$$$
