### 
### Created by X-TOOL on Tue Oct 25 02:13:47 2005
### 

@<TRIPOS>MOLECULE
1qsc_ligand
  107   108     1     0     0
SMALL
GAST_HUCK


@<TRIPOS>ATOM
      1 C          35.6410   57.2280   -1.8670 C.2       1 SUB1        0.175
      2 O          35.0650   57.5470   -0.8230 O.2       1 SUB1       -0.397
      3 CH3        35.8100   58.2390   -2.9970 C.3       1 SUB1        0.026
      4 N          36.1350   56.0100   -2.0760 N.am      1 SUB1       -0.264
      5 CA         36.0320   54.9670   -1.0660 C.3       1 SUB1        0.139
      6 C          37.1920   55.0250   -0.0810 C.2       1 SUB1        0.208
      7 O          38.3020   55.4260   -0.4300 O.2       1 SUB1       -0.394
      8 CB         35.9990   53.5740   -1.7180 C.3       1 SUB1        0.016
      9 CG         34.7340   53.2760   -2.4950 C.ar      1 SUB1       -0.049
     10 CD1        34.7630   52.4840   -3.6450 C.ar      1 SUB1       -0.068
     11 CD2        33.5060   53.8010   -2.0890 C.ar      1 SUB1       -0.068
     12 CE1        33.6010   52.2320   -4.3700 C.ar      1 SUB1       -0.040
     13 CE2        32.3420   53.5540   -2.8030 C.ar      1 SUB1       -0.040
     14 CZ         32.3930   52.7740   -3.9410 C.ar      1 SUB1        0.080
     15 OH         31.2330   52.5510   -4.6480 O.3       1 SUB1       -0.338
     16 N          36.9340   54.6320    1.1730 N.am      1 SUB1       -0.250
     17 CA         37.8700   54.5810    2.2990 C.3       1 SUB1        0.134
     18 C          38.8980   53.5020    1.9740 C.2       1 SUB1        0.204
     19 O          38.5880   52.5580    1.2480 O.2       1 SUB1       -0.394
     20 CB         36.9890   54.1380    3.4710 C.3       1 SUB1       -0.010
     21 CG         35.6060   54.4110    3.0240 C.3       1 SUB1       -0.028
     22 CD         35.6130   54.1300    1.5750 C.3       1 SUB1        0.037
     23 N          40.1060   53.6320    2.5100 N.am      1 SUB1       -0.264
     24 CA         41.1470   52.6290    2.2940 C.3       1 SUB1        0.133
     25 C          41.4090   51.9130    3.6170 C.2       1 SUB1        0.204
     26 O          41.6150   52.5560    4.6380 O.2       1 SUB1       -0.394
     27 CB         42.4480   53.2820    1.7920 C.3       1 SUB1       -0.004
     28 CG1        42.2030   53.8820    0.4100 C.3       1 SUB1       -0.049
     29 CG2        43.5870   52.2590    1.7650 C.3       1 SUB1       -0.058
     30 CD1        43.3650   54.6660   -0.1230 C.3       1 SUB1       -0.065
     31 N          41.3950   50.5840    3.6060 N.am      1 SUB1       -0.264
     32 CA         41.6150   49.8240    4.8360 C.3       1 SUB1        0.133
     33 C          43.0280   49.9270    5.3840 C.2       1 SUB1        0.204
     34 O          43.9860   50.1430    4.6430 O.2       1 SUB1       -0.394
     35 CB         41.2870   48.3400    4.6210 C.3       1 SUB1        0.004
     36 CG         39.8630   48.0740    4.1750 C.3       1 SUB1        0.041
     37 CD         39.5170   46.6030    4.1680 C.2       1 SUB1        0.174
     38 OE1        40.2430   45.7850    3.6100 O.2       1 SUB1       -0.397
     39 NE2        38.3930   46.2590    4.7780 N.am      1 SUB1       -0.301
     40 N          43.1430   49.7770    6.6950 N.am      1 SUB1       -0.263
     41 CA         44.4390   49.7990    7.3580 C.3       1 SUB1        0.134
     42 C          45.1400   48.5100    6.9310 C.2       1 SUB1        0.205
     43 O          44.4920   47.5730    6.4610 O.2       1 SUB1       -0.394
     44 CB         44.2520   49.8010    8.8770 C.3       1 SUB1       -0.001
     45 CG         43.4130   48.6300    9.3950 C.3       1 SUB1       -0.010
     46 CD         43.2000   48.6670   10.9090 C.2       1 SUB1        0.028
     47 OE1        42.3050   47.9480   11.4030 O.co2     1 SUB1       -0.567
     48 OE2        43.9260   49.4010   11.6100 O.co2     1 SUB1       -0.567
     49 N          46.4550   48.4560    7.0870 N.am      1 SUB1       -0.266
     50 CA         47.1990   47.2610    6.7030 C.3       1 SUB1        0.107
     51 C          47.5240   46.4330    7.9430 C.2       1 SUB1        0.056
     52 O          47.4380   45.1860    7.8660 O.co2     1 SUB1       -0.564
     53 CB         48.5080   47.6200    5.9710 C.3       1 SUB1        0.086
     54 OG1        49.3570   48.3750    6.8440 O.3       1 SUB1       -0.387
     55 CG2        48.2120   48.4410    4.7260 C.3       1 SUB1       -0.034
     56 O1         47.8705   46.9906    9.0185 O.co2     1 SUB1       -0.564
     57 H41        36.5863   55.8072   -2.9450 H         1 SUB1        0.188
     58 H51        35.0943   55.1185   -0.5112 H         1 SUB1        0.082
     59 H81        36.1002   52.8200   -0.9236 H         1 SUB1        0.045
     60 H82        36.8525   53.4968   -2.4077 H         1 SUB1        0.045
     61 H101       35.7032   52.0595   -3.9779 H         1 SUB1        0.053
     62 H111       33.4606   54.4149   -1.1967 H         1 SUB1        0.053
     63 H121       33.6371   51.6178   -5.2625 H         1 SUB1        0.052
     64 H131       31.3986   53.9709   -2.4693 H         1 SUB1        0.052
     65 H151       30.5106   52.9916   -4.2161 H         1 SUB1        0.246
     66 H171       38.3552   55.5493    2.4915 H         1 SUB1        0.080
     67 H201       37.2260   54.7175    4.3754 H         1 SUB1        0.031
     68 H202       37.1261   53.0660    3.6761 H         1 SUB1        0.031
     69 H211       35.3382   55.4610    3.2133 H         1 SUB1        0.029
     70 H212       34.8943   53.7519    3.5427 H         1 SUB1        0.029
     71 H221       34.8060   54.6708    1.0591 H         1 SUB1        0.052
     72 H222       35.5175   53.0523    1.3764 H         1 SUB1        0.052
     73 H231       40.3077   54.4332    3.0734 H         1 SUB1        0.188
     74 H241       40.7996   51.9018    1.5453 H         1 SUB1        0.080
     75 H271       42.7272   54.0920    2.4819 H         1 SUB1        0.034
     76 H281       41.3321   54.5511    0.4716 H         1 SUB1        0.027
     77 H282       41.9867   53.0622   -0.2909 H         1 SUB1        0.027
     78 H291       43.7593   51.8753    2.7814 H         1 SUB1        0.023
     79 H292       44.5039   52.7408    1.3946 H         1 SUB1        0.023
     80 H293       43.3161   51.4260    1.0996 H         1 SUB1        0.023
     81 H301       43.5830   55.5048    0.5544 H         1 SUB1        0.023
     82 H302       43.1173   55.0559   -1.1213 H         1 SUB1        0.023
     83 H303       44.2470   54.0125   -0.1931 H         1 SUB1        0.023
     84 H311       41.2322   50.0983    2.7471 H         1 SUB1        0.188
     85 H321       40.9295   50.2259    5.5967 H         1 SUB1        0.080
     86 H351       41.4557   47.8090    5.5694 H         1 SUB1        0.034
     87 H352       41.9681   47.9444    3.8531 H         1 SUB1        0.034
     88 H361       39.7336   48.4703    3.1571 H         1 SUB1        0.050
     89 H362       39.1771   48.5932    4.8605 H         1 SUB1        0.050
     90 H391       37.8248   46.9587    5.2110 H         1 SUB1        0.181
     91 H392       38.1125   45.2995    4.8056 H         1 SUB1        0.181
     92 H401       42.3177   49.6451    7.2440 H         1 SUB1        0.188
     93 H411       45.0194   50.6811    7.0499 H         1 SUB1        0.080
     94 H441       43.7542   50.7388    9.1645 H         1 SUB1        0.035
     95 H442       45.2443   49.7530    9.3492 H         1 SUB1        0.035
     96 H451       43.9250   47.6914    9.1365 H         1 SUB1        0.049
     97 H452       42.4299   48.6590    8.9025 H         1 SUB1        0.049
     98 H491       46.9414   49.2408    7.4711 H         1 SUB1        0.190
     99 H501       46.5718   46.6612    6.0271 H         1 SUB1        0.080
    100 H531       49.0213   46.6925    5.6775 H         1 SUB1        0.065
    101 H541       49.5580   47.8569    7.6145 H         1 SUB1        0.210
    102 H551       48.9795   49.2204    4.6097 H         1 SUB1        0.026
    103 H552       47.2229   48.9122    4.8241 H         1 SUB1        0.026
    104 H553       48.2194   47.7845    3.8435 H         1 SUB1        0.026
    105 H31        36.3445   57.7669   -3.8345 H         1 SUB1        0.047
    106 H32        36.3872   59.1020   -2.6336 H         1 SUB1        0.047
    107 H33        34.8202   58.5770   -3.3377 H         1 SUB1        0.047
@<TRIPOS>BOND
     1    1    2 2  
     2    1    3 1  
     3    6    5 1  
     4    5    8 1  
     5    5    4 1  
     6    8    9 1  
     7    9   11 ar 
     8    9   10 ar 
     9   10   12 ar 
    10   12   14 ar 
    11   14   15 1  
    12   13   14 ar 
    13   11   13 ar 
    14    6    7 2  
    15   17   16 1  
    16   17   20 1  
    17   18   17 1  
    18   18   19 2  
    19   20   21 1  
    20   21   22 1  
    21   16   22 1  
    22   25   24 1  
    23   24   27 1  
    24   24   23 1  
    25   27   28 1  
    26   27   29 1  
    27   28   30 1  
    28   25   26 2  
    29   33   32 1  
    30   32   35 1  
    31   32   31 1  
    32   35   36 1  
    33   36   37 1  
    34   37   38 2  
    35   37   39 am 
    36   33   34 2  
    37   42   41 1  
    38   41   44 1  
    39   41   40 1  
    40   44   45 1  
    41   45   46 1  
    42   46   47 2  
    43   46   48 2  
    44   42   43 2  
    45   50   51 1  
    46   50   53 1  
    47   49   50 1  
    48   53   54 1  
    49   53   55 1  
    50   51   52 2  
    51   51   56 2  
    52    4   57 1  
    53    5   58 1  
    54    8   59 1  
    55    8   60 1  
    56   10   61 1  
    57   11   62 1  
    58   12   63 1  
    59   13   64 1  
    60   15   65 1  
    61   17   66 1  
    62   20   67 1  
    63   20   68 1  
    64   21   69 1  
    65   21   70 1  
    66   22   71 1  
    67   22   72 1  
    68   23   73 1  
    69   24   74 1  
    70   27   75 1  
    71   28   76 1  
    72   28   77 1  
    73   29   78 1  
    74   29   79 1  
    75   29   80 1  
    76   30   81 1  
    77   30   82 1  
    78   30   83 1  
    79   31   84 1  
    80   32   85 1  
    81   35   86 1  
    82   35   87 1  
    83   36   88 1  
    84   36   89 1  
    85   39   90 1  
    86   39   91 1  
    87   40   92 1  
    88   41   93 1  
    89   44   94 1  
    90   44   95 1  
    91   45   96 1  
    92   45   97 1  
    93   49   98 1  
    94   50   99 1  
    95   53  100 1  
    96   54  101 1  
    97   55  102 1  
    98   55  103 1  
    99   55  104 1  
   100    3  105 1  
   101    3  106 1  
   102    3  107 1  
   103    4    1 am 
   104   16    6 am 
   105   23   18 am 
   106   31   25 am 
   107   40   33 am 
   108   42   49 am 
@<TRIPOS>SUBSTRUCTURE
     1 SUB1        1 GROUP

