### 
### Created by X-TOOL on Mon Oct 24 22:19:51 2005
### 

@<TRIPOS>MOLECULE
1ugp_ligand
   13    12     1     0     0
SMALL
GAST_HUCK


@<TRIPOS>ATOM
      1 C1          8.3480   33.7380   20.0450 C.3       1 SUB1       -0.062
      2 C2          8.7920   34.8590   19.0760 C.3       1 SUB1       -0.044
      3 C3          9.7670   35.2570   17.9440 C.3       1 SUB1       -0.014
      4 C4          9.1760   34.9100   16.5750 C.2       1 SUB1        0.028
      5 O1          9.3020   35.7490   15.6450 O.co2     1 SUB1       -0.567
      6 O2          8.6060   33.8200   16.4360 O.co2     1 SUB1       -0.567
      7 H11         7.5184   34.1007   20.6697 H         1 SUB1        0.023
      8 H12         9.1937   33.4529   20.6880 H         1 SUB1        0.023
      9 H13         8.0160   32.8633   19.4664 H         1 SUB1        0.023
     10 H21         9.0108   35.6571   19.8007 H         1 SUB1        0.030
     11 H22         7.8331   35.0676   18.5791 H         1 SUB1        0.030
     12 H31        10.7148   34.7146   18.0762 H         1 SUB1        0.048
     13 H32         9.9543   36.3398   17.9926 H         1 SUB1        0.048
@<TRIPOS>BOND
     1    1    2 1  
     2    2    3 1  
     3    3    4 1  
     4    4    5 2  
     5    4    6 2  
     6    1    7 1  
     7    1    8 1  
     8    1    9 1  
     9    2   10 1  
    10    2   11 1  
    11    3   12 1  
    12    3   13 1  
@<TRIPOS>SUBSTRUCTURE
     1 SUB1        1 GROUP

