### 
### Created by X-TOOL on Sun Jun  3 11:18:46 2007
### 

@<TRIPOS>MOLECULE
2cbz_ligand
   43    45     1     0     0
SMALL
GAST_HUCK


@<TRIPOS>ATOM
      1 PG        -21.6390   46.5380    6.1560 P.3       1 SUB1        0.653
      2 O1G       -20.3700   46.4390    6.9590 O.2       1 SUB1       -0.209
      3 O2G       -22.1040   45.2090    5.6090 O.2       1 SUB1       -0.209
      4 O3G       -22.7510   47.3510    6.7940 O.2       1 SUB1       -0.209
      5 PB        -20.4670   48.7440    4.7010 P.3       1 SUB1        0.580
      6 O1B       -21.3820   49.9060    4.9470 O.2       1 SUB1       -0.272
      7 O2B       -19.2030   48.6860    5.5020 O.2       1 SUB1       -0.272
      8 O3B       -21.2820   47.3520    4.7910 O.3       1 SUB1       -0.040
      9 PA        -18.7830   48.4910    2.3300 P.3       1 SUB1        0.546
     10 O1A       -18.1920   47.1910    2.7830 O.2       1 SUB1       -0.276
     11 O2A       -17.9360   49.7310    2.3580 O.2       1 SUB1       -0.276
     12 O3A       -20.1500   48.7920    3.1230 O.3       1 SUB1       -0.045
     13 O5        -19.3930   48.2200    0.8620 O.3       1 SUB1       -0.215
     14 C5        -19.5630   49.1970   -0.1620 C.3       1 SUB1        0.116
     15 C4        -18.8580   48.6920   -1.4330 C.3       1 SUB1        0.119
     16 O4        -17.4480   48.6460   -1.1630 O.3       1 SUB1       -0.336
     17 C3        -19.2460   47.2590   -1.7870 C.3       1 SUB1        0.115
     18 O3        -19.3310   47.1290   -3.2130 O.3       1 SUB1       -0.386
     19 C2        -18.0870   46.4230   -1.2770 C.3       1 SUB1        0.139
     20 O2        -17.9270   45.1870   -1.9700 O.3       1 SUB1       -0.384
     21 C1        -16.9180   47.3630   -1.5080 C.3       1 SUB1        0.201
     22 N9        -15.7510   47.0150   -0.6660 N.pl3     1 SUB1       -0.192
     23 C8        -15.6710   47.1300    0.6740 C.2       1 SUB1        0.112
     24 N7        -14.4570   46.7300    1.1340 N.2       1 SUB1       -0.296
     25 C5        -13.7280   46.3530    0.0660 C.ar      1 SUB1        0.105
     26 C6        -12.3530   45.8280   -0.1530 C.ar      1 SUB1        0.130
     27 N6        -11.5200   45.6290    0.8990 N.pl3     1 SUB1       -0.315
     28 N1        -11.9750   45.5590   -1.4290 N.ar      1 SUB1       -0.270
     29 C2        -12.8090   45.7610   -2.4780 C.ar      1 SUB1        0.053
     30 N3        -14.0700   46.2370   -2.3500 N.ar      1 SUB1       -0.271
     31 C4        -14.5810   46.5430   -1.1230 C.ar      1 SUB1        0.161
     32 H         -19.1316   50.1473    0.1525 H         1 SUB1        0.065
     33 H         -20.6238   49.3515   -0.3591 H         1 SUB1        0.065
     34 H         -19.1382   49.3608   -2.2468 H         1 SUB1        0.065
     35 H         -20.2043   46.9618   -1.3611 H         1 SUB1        0.065
     36 H         -19.5750   46.2280   -3.4371 H         1 SUB1        0.210
     37 H         -18.2128   46.1009   -0.2433 H         1 SUB1        0.068
     38 H         -17.7680   45.3614   -2.9006 H         1 SUB1        0.210
     39 H         -16.5433   47.3178   -2.5306 H         1 SUB1        0.100
     40 H         -16.4778   47.4973    1.3083 H         1 SUB1        0.135
     41 H         -11.8351   45.8395    1.8460 H         1 SUB1        0.182
     42 H         -10.5785   45.2689    0.7430 H         1 SUB1        0.182
     43 H         -12.4450   45.5277   -3.4786 H         1 SUB1        0.100
@<TRIPOS>BOND
     1    1    2 2  
     2    1    3 2  
     3    1    4 2  
     4    8    1 1  
     5    5    6 2  
     6    5    7 2  
     7    5    8 1  
     8   12    5 1  
     9    9   10 2  
    10    9   11 2  
    11    9   12 1  
    12    9   13 1  
    13   13   14 1  
    14   14   15 1  
    15   15   16 1  
    16   15   17 1  
    17   16   21 1  
    18   17   18 1  
    19   17   19 1  
    20   19   20 1  
    21   19   21 1  
    22   21   22 1  
    23   22   23 1  
    24   22   31 1  
    25   23   24 2  
    26   24   25 1  
    27   25   26 ar 
    28   25   31 ar 
    29   26   27 1  
    30   26   28 ar 
    31   28   29 ar 
    32   29   30 ar 
    33   30   31 ar 
    34   14   32 1  
    35   14   33 1  
    36   15   34 1  
    37   17   35 1  
    38   18   36 1  
    39   19   37 1  
    40   20   38 1  
    41   21   39 1  
    42   23   40 1  
    43   27   41 1  
    44   27   42 1  
    45   29   43 1  
@<TRIPOS>SUBSTRUCTURE
     1 SUB1        1 GROUP

