2cbz_ligand
  -I-interpret- 

 43 45  0  0  0  0  0  0  0  0999 V2000
  -21.6390   46.5380    6.1560 P   0  0  0  0  0
  -20.3700   46.4390    6.9590 O   0  0  0  0  0
  -22.1040   45.2090    5.6090 O   0  5  0  0  0
  -22.7510   47.3510    6.7940 O   0  5  0  0  0
  -20.4670   48.7440    4.7010 P   0  0  0  0  0
  -21.3820   49.9060    4.9470 O   0  5  0  0  0
  -19.2030   48.6860    5.5020 O   0  0  0  0  0
  -21.2820   47.3520    4.7910 O   0  0  0  0  0
  -18.7830   48.4910    2.3300 P   0  0  0  0  0
  -18.1920   47.1910    2.7830 O   0  0  0  0  0
  -17.9360   49.7310    2.3580 O   0  5  0  0  0
  -20.1500   48.7920    3.1230 O   0  0  0  0  0
  -19.3930   48.2200    0.8620 O   0  0  0  0  0
  -19.5630   49.1970   -0.1620 C   0  0  0  0  0
  -18.8580   48.6920   -1.4330 C   0  0  0  0  0
  -17.4480   48.6460   -1.1630 O   0  0  0  0  0
  -19.2460   47.2590   -1.7870 C   0  0  0  0  0
  -19.3310   47.1290   -3.2130 O   0  0  0  0  0
  -18.0870   46.4230   -1.2770 C   0  0  0  0  0
  -17.9270   45.1870   -1.9700 O   0  0  0  0  0
  -16.9180   47.3630   -1.5080 C   0  0  0  0  0
  -15.7510   47.0150   -0.6660 N   0  0  0  0  0
  -15.6710   47.1300    0.6740 C   0  0  0  0  0
  -14.4570   46.7300    1.1340 N   0  0  0  0  0
  -13.7280   46.3530    0.0660 C   0  0  0  0  0
  -12.3530   45.8280   -0.1530 C   0  0  0  0  0
  -11.5200   45.6290    0.8990 N   0  0  0  0  0
  -11.9750   45.5590   -1.4290 N   0  0  0  0  0
  -12.8090   45.7610   -2.4780 C   0  0  0  0  0
  -14.0700   46.2370   -2.3500 N   0  0  0  0  0
  -14.5810   46.5430   -1.1230 C   0  0  0  0  0
  -19.1316   50.1473    0.1525 H   0  0  0  0  0
  -20.6238   49.3515   -0.3591 H   0  0  0  0  0
  -19.1382   49.3608   -2.2468 H   0  0  0  0  0
  -20.2043   46.9618   -1.3611 H   0  0  0  0  0
  -19.5750   46.2280   -3.4371 H   0  0  0  0  0
  -18.2128   46.1009   -0.2433 H   0  0  0  0  0
  -17.7680   45.3614   -2.9006 H   0  0  0  0  0
  -16.5433   47.3178   -2.5306 H   0  0  0  0  0
  -16.4778   47.4973    1.3083 H   0  0  0  0  0
  -11.8351   45.8395    1.8460 H   0  0  0  0  0
  -10.5785   45.2689    0.7430 H   0  0  0  0  0
  -12.4450   45.5277   -3.4786 H   0  0  0  0  0
  1  2  2  0  0  0
  1  3  1  0  0  0
  1  4  1  0  0  0
  8  1  1  0  0  0
  5  6  1  0  0  0
  5  7  2  0  0  0
  5  8  1  0  0  0
 12  5  1  0  0  0
  9 10  2  0  0  0
  9 11  1  0  0  0
  9 12  1  0  0  0
  9 13  1  0  0  0
 13 14  1  0  0  0
 14 15  1  0  0  0
 15 16  1  0  0  0
 15 17  1  0  0  0
 16 21  1  0  0  0
 17 18  1  0  0  0
 17 19  1  0  0  0
 19 20  1  0  0  0
 19 21  1  0  0  0
 21 22  1  0  0  0
 22 23  1  0  0  0
 22 31  1  0  0  0
 23 24  2  0  0  0
 24 25  1  0  0  0
 25 26  4  0  0  0
 25 31  4  0  0  0
 26 27  1  0  0  0
 26 28  4  0  0  0
 28 29  4  0  0  0
 29 30  4  0  0  0
 30 31  4  0  0  0
 14 32  1  0  0  0
 14 33  1  0  0  0
 15 34  1  0  0  0
 17 35  1  0  0  0
 18 36  1  0  0  0
 19 37  1  0  0  0
 20 38  1  0  0  0
 21 39  1  0  0  0
 23 40  1  0  0  0
 27 41  1  0  0  0
 27 42  1  0  0  0
 29 43  1  0  0  0
M  END
$$$$
