### 
### Created by X-TOOL on Tue Oct 25 01:26:36 2005
### 

@<TRIPOS>MOLECULE
2pcp_ligand
   43    45     1     0     0
SMALL
GAST_HUCK


@<TRIPOS>ATOM
      1 CP         -7.3300  -31.7920  -15.3690 C.3       1 SUB1       -0.051
      2 CA         -9.1620  -27.2400  -14.5290 C.ar      1 SUB1       -0.033
      3 CB         -9.4430  -27.0060  -15.9010 C.ar      1 SUB1       -0.038
      4 CC        -10.7910  -26.7340  -16.3260 C.ar      1 SUB1       -0.032
      5 CD        -11.8960  -26.6870  -15.3840 C.ar      1 SUB1       -0.034
      6 CE        -11.6170  -26.9260  -14.0510 C.ar      1 SUB1       -0.032
      7 CF        -10.2900  -27.1930  -13.6110 C.ar      1 SUB1       -0.038
      8 CG         -7.6760  -27.5180  -13.9960 C.3       1 SUB1        0.014
      9 CH         -6.5630  -26.5590  -14.6380 C.3       1 SUB1       -0.058
     10 CI         -6.9940  -25.1210  -14.3940 C.3       1 SUB1       -0.059
     11 CJ         -6.9050  -24.7740  -12.8920 C.3       1 SUB1       -0.054
     12 CK         -7.7300  -25.7770  -12.0620 C.3       1 SUB1       -0.059
     13 CL         -7.4210  -27.2270  -12.4630 C.3       1 SUB1       -0.058
     14 NM         -7.2300  -29.0100  -14.1940 N.3       1 SUB1       -0.327
     15 CN         -8.2710  -30.0700  -13.7270 C.3       1 SUB1       -0.009
     16 CO         -7.7730  -31.5110  -13.9330 C.3       1 SUB1       -0.041
     17 CQ         -6.2590  -30.7550  -15.7650 C.3       1 SUB1       -0.041
     18 CR         -6.7380  -29.3290  -15.6150 C.3       1 SUB1       -0.009
     19 H11        -6.9071  -32.8053  -15.4348 H         1 SUB1        0.027
     20 H12        -8.1932  -31.7103  -16.0458 H         1 SUB1        0.027
     21 H31        -8.6409  -27.0323  -16.6297 H         1 SUB1        0.085
     22 H41       -10.9871  -26.5594  -17.3777 H         1 SUB1        0.070
     23 H51       -12.9055  -26.4718  -15.7151 H         1 SUB1        0.086
     24 H61       -12.4241  -26.9097  -13.3275 H         1 SUB1        0.070
     25 H71       -10.1136  -27.3673  -12.5557 H         1 SUB1        0.085
     26 H91        -6.4841  -26.7480  -15.7188 H         1 SUB1        0.019
     27 H92        -5.5891  -26.7440  -14.1613 H         1 SUB1        0.019
     28 H101       -8.0322  -24.9922  -14.7338 H         1 SUB1        0.026
     29 H102       -6.3363  -24.4454  -14.9606 H         1 SUB1        0.026
     30 H111       -7.2976  -23.7593  -12.7300 H         1 SUB1        0.026
     31 H112       -5.8536  -24.8159  -12.5715 H         1 SUB1        0.026
     32 H121       -8.8001  -25.5813  -12.2251 H         1 SUB1        0.026
     33 H122       -7.4907  -25.6419  -10.9969 H         1 SUB1        0.026
     34 H131       -6.3641  -27.4338  -12.2391 H         1 SUB1        0.019
     35 H132       -8.0596  -27.8974  -11.8691 H         1 SUB1        0.019
     36 H151       -8.4759  -29.9165  -12.6572 H         1 SUB1        0.042
     37 H152       -9.1986  -29.9312  -14.3016 H         1 SUB1        0.042
     38 H161       -6.9187  -31.6855  -13.2624 H         1 SUB1        0.028
     39 H162       -8.5883  -32.2033  -13.6761 H         1 SUB1        0.028
     40 H171       -5.9793  -30.9227  -16.8155 H         1 SUB1        0.028
     41 H172       -5.3771  -30.8985  -15.1233 H         1 SUB1        0.028
     42 H181       -5.9062  -28.6518  -15.8588 H         1 SUB1        0.042
     43 H182       -7.5661  -29.1610  -16.3192 H         1 SUB1        0.042
@<TRIPOS>BOND
     1    1   17 1  
     2    1   16 1  
     3   16   15 1  
     4   15   14 1  
     5   14   18 1  
     6   14    8 1  
     7    8   13 1  
     8    8    9 1  
     9    8    2 1  
    10    2    7 ar 
    11    2    3 ar 
    12    3    4 ar 
    13    4    5 ar 
    14    5    6 ar 
    15    6    7 ar 
    16    9   10 1  
    17   10   11 1  
    18   11   12 1  
    19   12   13 1  
    20   18   17 1  
    21    1   19 1  
    22    1   20 1  
    23    3   21 1  
    24    4   22 1  
    25    5   23 1  
    26    6   24 1  
    27    7   25 1  
    28    9   26 1  
    29    9   27 1  
    30   10   28 1  
    31   10   29 1  
    32   11   30 1  
    33   11   31 1  
    34   12   32 1  
    35   12   33 1  
    36   13   34 1  
    37   13   35 1  
    38   15   36 1  
    39   15   37 1  
    40   16   38 1  
    41   16   39 1  
    42   17   40 1  
    43   17   41 1  
    44   18   42 1  
    45   18   43 1  
@<TRIPOS>SUBSTRUCTURE
     1 SUB1        1 GROUP

