### 
### Created by X-TOOL on Tue Oct 25 00:58:50 2005
### 

@<TRIPOS>MOLECULE
1gpk_ligand
   37    39     1     0     0
SMALL
GAST_HUCK


@<TRIPOS>ATOM
      1 H221        2.5258   68.2951   59.7591 H         1 SUB1        0.279
      2 H231       -0.9989   69.2480   61.9153 H         1 SUB1        0.052
      3 H241        0.0049   68.2690   63.9133 H         1 SUB1        0.068
      4 H271        4.6638   67.9734   61.1799 H         1 SUB1        0.067
      5 H272        3.9715   66.3551   60.8214 H         1 SUB1        0.067
      6 H281        5.3896   65.8233   62.6317 H         1 SUB1        0.053
      7 H291        6.4142   67.9232   63.4802 H         1 SUB1        0.026
      8 H301        3.9902   62.6238   64.2065 H         1 SUB1        0.051
      9 H302        5.3799   63.7547   64.0778 H         1 SUB1        0.051
     10 H303        4.3383   63.4451   62.6474 H         1 SUB1        0.051
     11 H311        2.6331   64.4396   64.8017 H         1 SUB1        0.101
     12 H341        0.8775   67.1821   65.4481 H         1 SUB1        0.192
     13 H342        1.9323   66.0230   65.9513 H         1 SUB1        0.192
     14 H343        0.9963   65.7631   64.6225 H         1 SUB1        0.192
     15 H351        3.3104   67.8150   66.1649 H         1 SUB1        0.023
     16 H352        2.7704   69.0764   65.0055 H         1 SUB1        0.023
     17 H371        6.4889   69.5790   65.1860 H         1 SUB1        0.038
     18 H372        5.4559   69.1659   66.5962 H         1 SUB1        0.038
     19 H373        4.9142   70.4110   65.4202 H         1 SUB1        0.038
     20 C1          0.7260   68.8480   60.5950 C.2       1 SUB1        0.233
     21 O1          0.2650   69.3310   59.5260 O.2       1 SUB1       -0.388
     22 N1          2.0070   68.2910   60.6140 N.am      1 SUB1       -0.180
     23 C2          0.0030   68.8250   61.8590 C.2       1 SUB1        0.004
     24 C3          0.5760   68.2720   62.9860 C.2       1 SUB1       -0.067
     25 C4          1.9080   67.6940   62.9880 C.2       1 SUB1       -0.012
     26 C5          2.6240   67.7230   61.7490 C.2       1 SUB1        0.128
     27 C6          4.0170   67.1690   61.5600 C.3       1 SUB1        0.058
     28 C7          4.6570   66.5980   62.9020 C.3       1 SUB1        0.003
     29 C8          5.3760   67.6940   63.7160 C.2       1 SUB1       -0.096
     30 C9          4.3520   63.5530   63.7420 C.3       1 SUB1       -0.016
     31 C10         3.4630   64.6910   64.1430 C.2       1 SUB1       -0.058
     32 C11         3.5630   65.9670   63.7940 C.2       1 SUB1       -0.070
     33 C12         2.5690   67.0470   64.2830 C.3       1 SUB1       -0.053
     34 N2          1.5080   66.4560   65.1460 N.4       1 SUB1        0.099
     35 C13         3.3210   68.1300   65.1110 C.3       1 SUB1       -0.048
     36 C14         4.7650   68.3870   64.7180 C.2       1 SUB1       -0.096
     37 C15         5.4530   69.4590   65.5360 C.3       1 SUB1       -0.041
@<TRIPOS>BOND
     1   22    1 1  
     2   23    2 1  
     3   24    3 1  
     4   27    4 1  
     5   27    5 1  
     6   28    6 1  
     7   29    7 1  
     8   30    8 1  
     9   30    9 1  
    10   30   10 1  
    11   31   11 1  
    12   34   12 1  
    13   34   13 1  
    14   34   14 1  
    15   35   15 1  
    16   35   16 1  
    17   37   17 1  
    18   37   18 1  
    19   37   19 1  
    20   23   20 1  
    21   22   20 am 
    22   20   21 2  
    23   26   22 am 
    24   27   26 1  
    25   25   26 2  
    26   33   25 1  
    27   25   24 1  
    28   24   23 2  
    29   33   35 1  
    30   33   34 1  
    31   32   33 1  
    32   31   32 2  
    33   32   28 1  
    34   28   29 1  
    35   28   27 1  
    36   29   36 2  
    37   36   37 1  
    38   35   36 1  
    39   31   30 1  
@<TRIPOS>SUBSTRUCTURE
     1 SUB1        1 GROUP

