### 
### Created by X-TOOL on Mon Oct 24 22:51:43 2005
### 

@<TRIPOS>MOLECULE
1ex8_ligand
   65    69     1     0     0
SMALL
GAST_HUCK


@<TRIPOS>ATOM
      1 H31        -3.5990   16.8859   22.5445 H         1 SUB1        0.148
      2 N9R        -1.7310   16.0200   21.7450 N.pl3     1 SUB1       -0.176
      3 C8R        -3.0080   16.6490   21.6610 C.2       1 SUB1        0.131
      4 N7R        -3.4210   16.9220   20.4500 N.2       1 SUB1       -0.267
      5 C5R        -2.3380   16.4400   19.6670 C.ar      1 SUB1        0.123
      6 C6R        -2.2440   16.4790   18.2430 C.ar      1 SUB1        0.127
      7 N6R        -3.0750   16.9340   17.4080 N.2       1 SUB1       -0.322
      8 N1R        -1.0140   15.9120   17.6700 N.ar      1 SUB1       -0.254
      9 C1R        -1.2500   15.5810   23.0850 C.3       1 SUB1        0.204
     10 C2R        -0.1020   15.4180   18.4980 C.ar      1 SUB1        0.085
     11 N3R        -0.1220   15.3450   19.8910 N.ar      1 SUB1       -0.233
     12 C4R        -1.3120   15.8940   20.4340 C.ar      1 SUB1        0.195
     13 O5'         2.3380   17.0560   23.4850 O.3       1 SUB1       -0.319
     14 C5'         1.6790   16.7480   24.7970 C.3       1 SUB1        0.089
     15 C4'         0.5240   15.8640   24.4950 C.3       1 SUB1        0.116
     16 O4'        -0.3830   16.5520   23.6040 O.3       1 SUB1       -0.336
     17 C3'         0.8110   14.6060   23.7740 C.3       1 SUB1        0.115
     18 O3'         1.3240   13.6040   24.6130 O.3       1 SUB1       -0.386
     19 C2'        -0.5260   14.2430   23.1430 C.3       1 SUB1        0.139
     20 O2'        -1.2610   13.3050   23.9740 O.3       1 SUB1       -0.384
     21 PA          3.7310   17.8470   23.4590 P.3       1 SUB1        0.299
     22 O1A         3.9010   18.2160   22.0280 O.co2     1 SUB1       -0.533
     23 O2A         4.8890   17.0530   24.0220 O.co2     1 SUB1       -0.533
     24 O3A         3.5030   19.0320   24.4170 O.3       1 SUB1       -0.250
     25 PB          2.8520   20.4420   23.8710 P.3       1 SUB1        0.319
     26 O1B         1.8550   21.0080   24.8500 O.co2     1 SUB1       -0.532
     27 O2B         2.4680   20.3340   22.4200 O.co2     1 SUB1       -0.532
     28 O3B         4.1320   21.4660   23.9990 O.3       1 SUB1       -0.259
     29 PG          5.0020   21.8470   22.8690 P.3       1 SUB1        0.319
     30 O1G         5.1370   20.6910   21.8740 O.co2     1 SUB1       -0.532
     31 O2G         6.2980   22.3010   23.4610 O.co2     1 SUB1       -0.532
     32 O3G         4.2720   23.0140   22.1020 O.3       1 SUB1       -0.250
     33 PD          3.6820   22.8740   20.6100 P.3       1 SUB1        0.301
     34 O1D         2.5470   23.8750   20.5950 O.co2     1 SUB1       -0.533
     35 O2D         3.0600   21.4940   20.5880 O.co2     1 SUB1       -0.533
     36 O3D         4.7040   22.9970   19.5230 O.3       1 SUB1       -0.306
     37 N1          8.2990   26.8220   16.1330 N.2       1 SUB1       -0.282
     38 C2          8.4940   26.5050   14.8620 C.2       1 SUB1        0.238
     39 N2          9.0220   27.3200   13.9810 N.pl3     1 SUB1       -0.278
     40 N3          8.1040   25.2110   14.4510 N.am      1 SUB1       -0.173
     41 C4          7.5350   24.2300   15.2420 C.2       1 SUB1        0.260
     42 O4          7.2480   23.1100   14.6830 O.2       1 SUB1       -0.377
     43 N5          6.7560   23.7080   17.5800 N.ar      1 SUB1       -0.264
     44 C6          6.6010   24.1460   18.8770 C.ar      1 SUB1        0.080
     45 C6A         6.0120   23.2660   19.9040 C.3       1 SUB1        0.111
     46 C7          7.0160   25.5340   19.3350 C.ar      1 SUB1        0.035
     47 N8          7.5430   26.2680   18.3330 N.ar      1 SUB1       -0.281
     48 C9          7.7490   25.9570   17.0270 C.ar      1 SUB1        0.096
     49 C10         7.3260   24.5910   16.6350 C.ar      1 SUB1        0.148
     50 H71        -2.8718   16.8937   16.4215 H         1 SUB1        0.144
     51 H91        -2.1328   15.5063   23.7370 H         1 SUB1        0.100
     52 H101        0.7851   15.0135   18.0242 H         1 SUB1        0.111
     53 H141        2.3857   16.2341   25.4652 H         1 SUB1        0.062
     54 H142        1.3318   17.6762   25.2744 H         1 SUB1        0.062
     55 H151        0.0256   15.6253   25.4461 H         1 SUB1        0.065
     56 H171        1.5523   14.7930   22.9831 H         1 SUB1        0.065
     57 H181        0.7105   13.4393   25.3195 H         1 SUB1        0.210
     58 H191       -0.3885   13.8186   22.1376 H         1 SUB1        0.068
     59 H201       -0.7502   12.5112   24.0814 H         1 SUB1        0.210
     60 H391        9.3118   28.2670   14.2642 H         1 SUB1        0.192
     61 H392        9.1470   27.0133   13.0057 H         1 SUB1        0.192
     62 H401        8.2549   24.9809   13.4896 H         1 SUB1        0.253
     63 H451        6.5845   22.3290   19.9688 H         1 SUB1        0.078
     64 H452        6.0223   23.7704   20.8815 H         1 SUB1        0.078
     65 H461        6.9017   25.8937   20.3512 H         1 SUB1        0.087
@<TRIPOS>BOND
     1    2   12 1  
     2    2    9 1  
     3    2    3 1  
     4    3    4 2  
     5    4    5 1  
     6    5   12 ar 
     7    5    6 ar 
     8    6    8 ar 
     9    6    7 1  
    10    8   10 ar 
    11   10   11 ar 
    12   11   12 ar 
    13    9   19 1  
    14    9   16 1  
    15   16   15 1  
    16   15   17 1  
    17   15   14 1  
    18   14   13 1  
    19   13   21 1  
    20   21   24 1  
    21   21   23 2  
    22   21   22 2  
    23   24   25 1  
    24   25   28 1  
    25   25   27 2  
    26   25   26 2  
    27   28   29 1  
    28   29   32 1  
    29   29   31 2  
    30   29   30 2  
    31   32   33 1  
    32   33   36 1  
    33   33   35 2  
    34   33   34 2  
    35   36   45 1  
    36   45   44 1  
    37   44   46 ar 
    38   44   43 ar 
    39   43   49 ar 
    40   49   41 1  
    41   49   48 ar 
    42   48   37 1  
    43   48   47 ar 
    44   47   46 ar 
    45   37   38 2  
    46   38   40 am 
    47   38   39 1  
    48   40   41 am 
    49   41   42 2  
    50   17   19 1  
    51   17   18 1  
    52   19   20 1  
    53    3    1 1  
    54    7   50 1  
    55    9   51 1  
    56   10   52 1  
    57   14   53 1  
    58   14   54 1  
    59   15   55 1  
    60   17   56 1  
    61   18   57 1  
    62   19   58 1  
    63   20   59 1  
    64   39   60 1  
    65   39   61 1  
    66   40   62 1  
    67   45   63 1  
    68   45   64 1  
    69   46   65 1  
@<TRIPOS>SUBSTRUCTURE
     1 SUB1        1 GROUP

