### 
### Created by X-TOOL on Tue Oct 25 01:52:55 2005
### 

@<TRIPOS>MOLECULE
2mas_ligand
   33    34     1     0     0
SMALL
GAST_HUCK


@<TRIPOS>ATOM
      1 C1        107.1160   36.4820   81.8630 C.ar      1 SUB1       -0.066
      2 C2        106.5220   35.2020   82.0070 C.ar      1 SUB1       -0.006
      3 C3        107.0330   34.1130   81.2640 C.ar      1 SUB1       -0.066
      4 C4        107.8940   34.3480   80.1840 C.ar      1 SUB1       -0.051
      5 C5        108.4400   35.6460   80.0050 C.ar      1 SUB1        0.028
      6 N5        109.2770   35.8850   78.9900 N.pl3     1 SUB1       -0.341
      7 C6        108.1240   36.6860   80.9080 C.ar      1 SUB1       -0.051
      8 C1'       105.3330   35.0040   82.9310 C.3       1 SUB1        0.035
      9 C2'       105.1370   36.1330   83.9270 C.3       1 SUB1        0.137
     10 O2'       105.3650   35.6820   85.2530 O.3       1 SUB1       -0.382
     11 C3'       103.6700   36.5690   83.7690 C.3       1 SUB1        0.132
     12 O3'       102.8450   35.9830   84.7620 O.3       1 SUB1       -0.383
     13 C4'       103.2690   36.0990   82.3930 C.3       1 SUB1        0.032
     14 N4'       104.0380   34.8720   82.2770 N.4       1 SUB1        0.247
     15 C5'       103.5970   37.0450   81.2280 C.3       1 SUB1        0.089
     16 O5'       103.7070   36.3140   80.0080 O.3       1 SUB1       -0.389
     17 H11       106.7911   37.3035   82.4912 H         1 SUB1        0.053
     18 H31       106.7592   33.0983   81.5294 H         1 SUB1        0.053
     19 H41       108.1400   33.5489   79.4940 H         1 SUB1        0.050
     20 H61       109.6732   36.8268   78.8601 H         1 SUB1        0.170
     21 H62       109.5255   35.1273   78.3381 H         1 SUB1        0.170
     22 H71       108.6541   37.6305   80.8636 H         1 SUB1        0.050
     23 H81       105.5287   34.0769   83.4897 H         1 SUB1        0.102
     24 H91       105.8163   36.9678   83.6999 H         1 SUB1        0.070
     25 H101      104.7960   34.9439   85.4375 H         1 SUB1        0.210
     26 H111      103.5902   37.6640   83.8368 H         1 SUB1        0.068
     27 H121      103.1145   36.2921   85.6189 H         1 SUB1        0.210
     28 H131      102.1889   35.8920   82.3705 H         1 SUB1        0.090
     29 H141      103.5254   34.1196   82.7095 H         1 SUB1        0.203
     30 H142      104.1811   34.6637   81.3012 H         1 SUB1        0.203
     31 H151      104.5504   37.5542   81.4323 H         1 SUB1        0.061
     32 H152      102.7955   37.7922   81.1315 H         1 SUB1        0.061
     33 H161      103.9098   36.9126   79.2986 H         1 SUB1        0.210
@<TRIPOS>BOND
     1    1    7 ar 
     2    1    2 ar 
     3    2    8 1  
     4    2    3 ar 
     5    3    4 ar 
     6    4    5 ar 
     7    5    7 ar 
     8    5    6 1  
     9    8   14 1  
    10    8    9 1  
    11    9   11 1  
    12    9   10 1  
    13   11   13 1  
    14   11   12 1  
    15   13   15 1  
    16   13   14 1  
    17   15   16 1  
    18    1   17 1  
    19    3   18 1  
    20    4   19 1  
    21    6   20 1  
    22    6   21 1  
    23    7   22 1  
    24    8   23 1  
    25    9   24 1  
    26   10   25 1  
    27   11   26 1  
    28   12   27 1  
    29   13   28 1  
    30   14   29 1  
    31   14   30 1  
    32   15   31 1  
    33   15   32 1  
    34   16   33 1  
@<TRIPOS>SUBSTRUCTURE
     1 SUB1        1 GROUP

