### 
### Created by X-TOOL on Tue Oct 25 02:22:01 2005
### 

@<TRIPOS>MOLECULE
1rql_ligand
    9     8     1     0     0
SMALL
GAST_HUCK


@<TRIPOS>ATOM
      1 O1         84.8300   -7.4100    8.2160 O.co2     1 SUB1       -0.480
      2 S2         85.7460   -6.3030    8.2720 S.o2      1 SUB1       -0.170
      3 C3         86.5700   -6.3720    6.7510 C.2       1 SUB1        0.008
      4 C4         87.5300   -5.4880    6.4420 C.2       1 SUB1       -0.084
      5 O8         86.7950   -6.4560    9.2190 O.co2     1 SUB1       -0.480
      6 O9         85.0870   -5.0090    8.3100 O.co2     1 SUB1       -0.480
      7 H31        86.3043   -7.1464    6.0329 H         1 SUB1        0.078
      8 H41        88.0365   -5.5483    5.4799 H         1 SUB1        0.055
      9 H42        87.8030   -4.7098    7.1532 H         1 SUB1        0.055
@<TRIPOS>BOND
     1    1    2 2  
     2    2    3 1  
     3    2    5 2  
     4    2    6 2  
     5    3    4 2  
     6    3    7 1  
     7    4    8 1  
     8    4    9 1  
@<TRIPOS>SUBSTRUCTURE
     1 SUB1        1 GROUP

