1y3g_ligand
  -I-interpret- 

 69 69  0  0  0  0  0  0  0  0999 V2000
   33.5740   38.3390   -7.3140 C   0  0  0  0  0
   34.2780   37.9180   -8.2260 O   0  0  0  0  0
   32.3320   37.5790   -6.8510 C   0  0  0  0  0
   31.7670   36.6130   -7.9030 C   0  0  0  0  0
   31.2790   37.2990   -9.1630 C   0  0  0  0  0
   29.9780   37.7270   -9.2740 C   0  0  0  0  0
   29.5400   38.3580  -10.4500 C   0  0  0  0  0
   30.3940   38.5660  -11.4810 C   0  0  0  0  0
   31.6770   38.1400  -11.3870 C   0  0  0  0  0
   32.1330   37.5030  -10.2230 C   0  0  0  0  0
   33.8310   39.4760   -6.6770 N   0  0  0  0  0
   34.9690   40.3030   -7.0270 C   0  0  0  0  0
   35.1320   41.8370   -6.0210 S   0  0  0  0  0
   36.5590   42.5110   -6.4570 O   0  0  0  0  0
   33.9020   42.8650   -6.3510 O   0  0  0  0  0
   35.1470   41.5070   -4.1980 C   0  0  0  0  0
   36.4240   41.9170   -3.4250 C   0  0  0  0  0
   37.7300   41.1950   -3.7450 C   0  0  0  0  0
   38.8140   41.7940   -3.7770 O   0  0  0  0  0
   36.1680   41.9430   -1.9260 C   0  0  0  0  0
   37.3450   42.5010   -1.1340 C   0  0  0  0  0
   37.4160   44.0230   -1.2980 C   0  0  0  0  0
   37.1760   42.1430    0.3350 C   0  0  0  0  0
   37.6190   39.8890   -3.9520 N   0  0  0  0  0
   38.7760   39.0650   -4.2550 C   0  0  0  0  0
   38.4390   37.9670   -5.2420 C   0  0  0  0  0
   37.2240   37.7700   -5.5120 O   0  5  0  0  0
   39.4430   38.4920   -2.9850 C   0  0  0  0  0
   38.5760   37.4890   -2.2380 C   0  0  0  0  0
   37.5350   38.2240   -1.4170 C   0  0  0  0  0
   39.4430   36.6570   -1.3110 C   0  0  0  0  0
   39.3950   37.3570   -5.7700 O   0  0  0  0  0
   31.5589   38.3180   -6.6404 H   0  0  0  0  0
   32.6200   36.9834   -5.9848 H   0  0  0  0  0
   30.9109   36.1086   -7.4549 H   0  0  0  0  0
   32.5731   35.9384   -8.1914 H   0  0  0  0  0
   29.2839   37.5764   -8.4472 H   0  0  0  0  0
   28.5031   38.6834  -10.5339 H   0  0  0  0  0
   30.0506   39.0738  -12.3822 H   0  0  0  0  0
   32.3602   38.2934  -12.2223 H   0  0  0  0  0
   33.1682   37.1682  -10.1579 H   0  0  0  0  0
   33.2123   39.7745   -5.9230 H   0  0  0  0  0
   34.8329   40.6127   -8.0632 H   0  0  0  0  0
   35.8643   39.7072   -6.8494 H   0  0  0  0  0
   37.2734   41.9008   -6.2596 H   0  0  0  0  0
   33.0706   42.4610   -6.0920 H   0  0  0  0  0
   35.0654   40.4255   -4.0889 H   0  0  0  0  0
   34.3383   42.1056   -3.7788 H   0  0  0  0  0
   36.6152   42.9189   -3.8094 H   0  0  0  0  0
   36.0023   40.9167   -1.5983 H   0  0  0  0  0
   35.3087   42.5889   -1.7457 H   0  0  0  0  0
   38.2717   42.0671   -1.5094 H   0  0  0  0  0
   37.5452   44.2679   -2.3522 H   0  0  0  0  0
   36.4925   44.4702   -0.9303 H   0  0  0  0  0
   38.2606   44.4096   -0.7277 H   0  0  0  0  0
   36.2468   42.5737    0.7081 H   0  0  0  0  0
   37.1441   41.0587    0.4421 H   0  0  0  0  0
   38.0165   42.5409    0.9036 H   0  0  0  0  0
   36.6985   39.4531   -3.8970 H   0  0  0  0  0
   39.5065   39.7225   -4.7264 H   0  0  0  0  0
   39.6302   39.3272   -2.3101 H   0  0  0  0  0
   40.3475   37.9709   -3.2988 H   0  0  0  0  0
   38.0805   36.8393   -2.9594 H   0  0  0  0  0
   38.0337   38.8759   -0.6997 H   0  0  0  0  0
   36.9081   38.8219   -2.0786 H   0  0  0  0  0
   36.9173   37.5009   -0.8844 H   0  0  0  0  0
   40.1916   36.1238   -1.8970 H   0  0  0  0  0
   39.9392   37.3118   -0.5947 H   0  0  0  0  0
   38.8187   35.9400   -0.7779 H   0  0  0  0  0
  1  2  2  0  0  0
  1  3  1  0  0  0
  1 11  1  0  0  0
  3  4  1  0  0  0
  4  5  1  0  0  0
  5  6  4  0  0  0
  5 10  4  0  0  0
  6  7  4  0  0  0
  7  8  4  0  0  0
  8  9  4  0  0  0
  9 10  4  0  0  0
 11 12  1  0  0  0
 12 13  1  0  0  0
 13 14  1  0  0  0
 13 15  1  0  0  0
 13 16  1  0  0  0
 16 17  1  0  0  0
 17 18  1  0  0  0
 17 20  1  0  0  0
 18 19  2  0  0  0
 18 24  1  0  0  0
 20 21  1  0  0  0
 21 22  1  0  0  0
 21 23  1  0  0  0
 24 25  1  0  0  0
 25 26  1  0  0  0
 25 28  1  0  0  0
 26 27  1  0  0  0
 26 32  2  0  0  0
 28 29  1  0  0  0
 29 30  1  0  0  0
 29 31  1  0  0  0
  3 33  1  0  0  0
  3 34  1  0  0  0
  4 35  1  0  0  0
  4 36  1  0  0  0
  6 37  1  0  0  0
  7 38  1  0  0  0
  8 39  1  0  0  0
  9 40  1  0  0  0
 10 41  1  0  0  0
 11 42  1  0  0  0
 12 43  1  0  0  0
 12 44  1  0  0  0
 14 45  1  0  0  0
 15 46  1  0  0  0
 16 47  1  0  0  0
 16 48  1  0  0  0
 17 49  1  0  0  0
 20 50  1  0  0  0
 20 51  1  0  0  0
 21 52  1  0  0  0
 22 53  1  0  0  0
 22 54  1  0  0  0
 22 55  1  0  0  0
 23 56  1  0  0  0
 23 57  1  0  0  0
 23 58  1  0  0  0
 24 59  1  0  0  0
 25 60  1  0  0  0
 28 61  1  0  0  0
 28 62  1  0  0  0
 29 63  1  0  0  0
 30 64  1  0  0  0
 30 65  1  0  0  0
 30 66  1  0  0  0
 31 67  1  0  0  0
 31 68  1  0  0  0
 31 69  1  0  0  0
M  END
$$$$
