### 
### Created by X-TOOL on Sun Jun  3 11:12:53 2007
### 

@<TRIPOS>MOLECULE
1y3g_ligand
   69    69     1     0     0
SMALL
GAST_HUCK


@<TRIPOS>ATOM
      1 C          33.5740   38.3390   -7.3140 C.2       1 SUB1        0.178
      2 O          34.2780   37.9180   -8.2260 O.2       1 SUB1       -0.397
      3 CA         32.3320   37.5790   -6.8510 C.3       1 SUB1        0.047
      4 CB         31.7670   36.6130   -7.9030 C.3       1 SUB1       -0.002
      5 CG         31.2790   37.2990   -9.1630 C.ar      1 SUB1       -0.041
      6 CD1        29.9780   37.7270   -9.2740 C.ar      1 SUB1       -0.060
      7 CE1        29.5400   38.3580  -10.4500 C.ar      1 SUB1       -0.069
      8 CZ         30.3940   38.5660  -11.4810 C.ar      1 SUB1       -0.069
      9 CE2        31.6770   38.1400  -11.3870 C.ar      1 SUB1       -0.069
     10 CD2        32.1330   37.5030  -10.2230 C.ar      1 SUB1       -0.060
     11 N          33.8310   39.4760   -6.6770 N.am      1 SUB1       -0.285
     12 CA         34.9690   40.3030   -7.0270 C.3       1 SUB1        0.051
     13 SI         35.1320   41.8370   -6.0210 S.3       1 SUB1        0.000
     14 O1         36.5590   42.5110   -6.4570 O.3       1 SUB1       -0.253
     15 O2         33.9020   42.8650   -6.3510 O.3       1 SUB1       -0.253
     16 CH2        35.1470   41.5070   -4.1980 C.3       1 SUB1       -0.031
     17 CE         36.4240   41.9170   -3.4250 C.3       1 SUB1        0.049
     18 C          37.7300   41.1950   -3.7450 C.2       1 SUB1        0.181
     19 O          38.8140   41.7940   -3.7770 O.2       1 SUB1       -0.397
     20 CB         36.1680   41.9430   -1.9260 C.3       1 SUB1       -0.031
     21 CG         37.3450   42.5010   -1.1340 C.3       1 SUB1       -0.044
     22 CD1        37.4160   44.0230   -1.2980 C.3       1 SUB1       -0.062
     23 CD2        37.1760   42.1430    0.3350 C.3       1 SUB1       -0.062
     24 N          37.6190   39.8890   -3.9520 N.am      1 SUB1       -0.266
     25 CA         38.7760   39.0650   -4.2550 C.3       1 SUB1        0.154
     26 C          38.4390   37.9670   -5.2420 C.2       1 SUB1        0.370
     27 O          37.2240   37.7700   -5.5120 O.2       1 SUB1       -0.260
     28 CB         39.4430   38.4920   -2.9850 C.3       1 SUB1       -0.010
     29 CG         38.5760   37.4890   -2.2380 C.3       1 SUB1       -0.043
     30 CD1        37.5350   38.2240   -1.4170 C.3       1 SUB1       -0.062
     31 CD2        39.4430   36.6570   -1.3110 C.3       1 SUB1       -0.062
     32 OXT        39.3950   37.3570   -5.7700 O.2       1 SUB1       -0.260
     33 H          31.5589   38.3180   -6.6404 H         1 SUB1        0.052
     34 H          32.6200   36.9834   -5.9848 H         1 SUB1        0.052
     35 H          30.9109   36.1086   -7.4549 H         1 SUB1        0.045
     36 H          32.5731   35.9384   -8.1914 H         1 SUB1        0.045
     37 H          29.2839   37.5764   -8.4472 H         1 SUB1        0.056
     38 H          28.5031   38.6834  -10.5339 H         1 SUB1        0.060
     39 H          30.0506   39.0738  -12.3822 H         1 SUB1        0.056
     40 H          32.3602   38.2934  -12.2223 H         1 SUB1        0.060
     41 H          33.1682   37.1682  -10.1579 H         1 SUB1        0.056
     42 H          33.2123   39.7745   -5.9230 H         1 SUB1        0.185
     43 H          34.8329   40.6127   -8.0632 H         1 SUB1        0.054
     44 H          35.8643   39.7072   -6.8494 H         1 SUB1        0.054
     45 H          37.2734   41.9008   -6.2596 H         1 SUB1        0.253
     46 H          33.0706   42.4610   -6.0920 H         1 SUB1        0.253
     47 H          35.0654   40.4255   -4.0889 H         1 SUB1        0.029
     48 H          34.3383   42.1056   -3.7788 H         1 SUB1        0.029
     49 H          36.6152   42.9189   -3.8094 H         1 SUB1        0.054
     50 H          36.0023   40.9167   -1.5983 H         1 SUB1        0.030
     51 H          35.3087   42.5889   -1.7457 H         1 SUB1        0.030
     52 H          38.2717   42.0671   -1.5094 H         1 SUB1        0.030
     53 H          37.5452   44.2679   -2.3522 H         1 SUB1        0.023
     54 H          36.4925   44.4702   -0.9303 H         1 SUB1        0.023
     55 H          38.2606   44.4096   -0.7277 H         1 SUB1        0.023
     56 H          36.2468   42.5737    0.7081 H         1 SUB1        0.023
     57 H          37.1441   41.0587    0.4421 H         1 SUB1        0.023
     58 H          38.0165   42.5409    0.9036 H         1 SUB1        0.023
     59 H          36.6985   39.4531   -3.8970 H         1 SUB1        0.188
     60 H          39.5065   39.7225   -4.7264 H         1 SUB1        0.078
     61 H          39.6302   39.3272   -2.3101 H         1 SUB1        0.031
     62 H          40.3475   37.9709   -3.2988 H         1 SUB1        0.031
     63 H          38.0805   36.8393   -2.9594 H         1 SUB1        0.030
     64 H          38.0337   38.8759   -0.6997 H         1 SUB1        0.023
     65 H          36.9081   38.8219   -2.0786 H         1 SUB1        0.023
     66 H          36.9173   37.5009   -0.8844 H         1 SUB1        0.023
     67 H          40.1916   36.1238   -1.8970 H         1 SUB1        0.023
     68 H          39.9392   37.3118   -0.5947 H         1 SUB1        0.023
     69 H          38.8187   35.9400   -0.7779 H         1 SUB1        0.023
@<TRIPOS>BOND
     1    1    2 2  
     2    1    3 1  
     3    1   11 am 
     4    3    4 1  
     5    4    5 1  
     6    5    6 ar 
     7    5   10 ar 
     8    6    7 ar 
     9    7    8 ar 
    10    8    9 ar 
    11    9   10 ar 
    12   11   12 1  
    13   12   13 1  
    14   13   14 1  
    15   13   15 1  
    16   13   16 1  
    17   16   17 1  
    18   17   18 1  
    19   17   20 1  
    20   18   19 2  
    21   18   24 am 
    22   20   21 1  
    23   21   22 1  
    24   21   23 1  
    25   24   25 1  
    26   25   26 1  
    27   25   28 1  
    28   26   27 2  
    29   26   32 2  
    30   28   29 1  
    31   29   30 1  
    32   29   31 1  
    33    3   33 1  
    34    3   34 1  
    35    4   35 1  
    36    4   36 1  
    37    6   37 1  
    38    7   38 1  
    39    8   39 1  
    40    9   40 1  
    41   10   41 1  
    42   11   42 1  
    43   12   43 1  
    44   12   44 1  
    45   14   45 1  
    46   15   46 1  
    47   16   47 1  
    48   16   48 1  
    49   17   49 1  
    50   20   50 1  
    51   20   51 1  
    52   21   52 1  
    53   22   53 1  
    54   22   54 1  
    55   22   55 1  
    56   23   56 1  
    57   23   57 1  
    58   23   58 1  
    59   24   59 1  
    60   25   60 1  
    61   28   61 1  
    62   28   62 1  
    63   29   63 1  
    64   30   64 1  
    65   30   65 1  
    66   30   66 1  
    67   31   67 1  
    68   31   68 1  
    69   31   69 1  
@<TRIPOS>SUBSTRUCTURE
     1 SUB1        1 GROUP

