2adm_ligand
  -I-interpret- 

 50 52  0  0  0  0  0  0  0  0999 V2000
    1.4443   34.7344   45.9518 H   0  0  0  0  0
    2.8817   35.4385   46.3361 H   0  0  0  0  0
    2.5738   33.8896   46.8003 H   0  0  0  0  0
    2.5155   33.1304   44.5869 H   0  0  0  0  0
    1.6935   34.8719   43.3114 H   0  0  0  0  0
    3.4342   34.8731   42.8682 H   0  0  0  0  0
    3.7494   36.7065   44.6031 H   0  0  0  0  0
    1.9583   36.7965   44.7058 H   0  0  0  0  0
    4.1079   39.5526   42.2374 H   0  0  0  0  0
    4.9788   38.3097   43.1982 H   0  0  0  0  0
    3.7162   39.3238   43.9754 H   0  0  0  0  0
    1.2373   39.2450   41.8151 H   0  0  0  0  0
    1.0514   38.9391   43.5754 H   0  0  0  0  0
    0.2167   36.5717   42.7624 H   0  0  0  0  0
    0.4725   38.0574   40.2624 H   0  0  0  0  0
   -0.4572   35.4326   40.9380 H   0  0  0  0  0
   -1.7121   38.4558   39.7336 H   0  0  0  0  0
   -2.0493   36.1809   39.4145 H   0  0  0  0  0
   -3.1090   37.8325   42.1175 H   0  0  0  0  0
   -1.1712   40.3287   40.0436 H   0  0  0  0  0
   -4.7908   44.7087   42.4524 H   0  0  0  0  0
   -3.4757   44.3620   41.2978 H   0  0  0  0  0
   -5.5970   40.8385   44.6125 H   0  0  0  0  0
    2.4320   34.5750   46.0750 N   0  3  0  0  0
    3.0060   34.0860   44.8240 C   0  0  0  0  0
    4.5160   33.8170   44.9280 C   0  0  0  0  0
    5.1060   34.1460   45.9810 O   0  0  0  0  0
    5.0940   33.2780   43.9560 O   0  5  0  0  0
    2.7130   35.0660   43.6760 C   0  0  0  0  0
    2.8090   36.5410   44.0570 C   0  0  0  0  0
    2.7800   37.6130   42.6110 S   0  0  0  0  0
    4.0130   38.8140   43.0470 C   0  0  0  0  0
    1.2030   38.4680   42.5930 C   0  0  0  0  0
    0.0180   37.5540   42.3090 C   0  0  0  0  0
   -1.1880   38.0960   42.8710 O   0  0  0  0  0
   -0.1880   37.3780   40.8210 C   0  0  0  0  0
    0.0950   36.0230   40.4390 O   0  0  0  0  0
   -1.6380   37.7280   40.5550 C   0  0  0  0  0
   -2.3850   36.5500   40.2230 O   0  0  0  0  0
   -2.1650   38.3270   41.8450 C   0  0  0  0  0
   -2.4090   39.7780   41.6950 N   0  0  0  0  0
   -1.8940   40.6480   40.7930 C   0  0  0  0  0
   -2.2970   41.8690   40.8610 N   0  0  0  0  0
   -3.1890   41.8280   41.9360 C   0  0  0  0  0
   -4.0820   42.7790   42.4610 C   0  0  0  0  0
   -4.1190   44.0470   42.0380 N   0  0  0  0  0
   -4.9290   42.3680   43.4310 N   0  0  0  0  0
   -4.8880   41.1020   43.8360 C   0  0  0  0  0
   -4.1020   40.1160   43.4240 N   0  0  0  0  0
   -3.2630   40.5520   42.4530 C   0  0  0  0  0
 24  1  1  0  0  0
 24  2  1  0  0  0
 24  3  1  0  0  0
 25  4  1  0  0  0
 29  5  1  0  0  0
 29  6  1  0  0  0
 30  7  1  0  0  0
 30  8  1  0  0  0
 32  9  1  0  0  0
 32 10  1  0  0  0
 32 11  1  0  0  0
 33 12  1  0  0  0
 33 13  1  0  0  0
 34 14  1  0  0  0
 36 15  1  0  0  0
 37 16  1  0  0  0
 38 17  1  0  0  0
 39 18  1  0  0  0
 40 19  1  0  0  0
 42 20  1  0  0  0
 46 21  1  0  0  0
 46 22  1  0  0  0
 48 23  1  0  0  0
 25 24  1  0  0  0
 29 25  1  0  0  0
 25 26  1  0  0  0
 26 28  1  0  0  0
 26 27  2  0  0  0
 30 29  1  0  0  0
 31 30  1  0  0  0
 33 31  1  0  0  0
 31 32  1  0  0  0
 34 33  1  0  0  0
 36 34  1  0  0  0
 35 34  1  0  0  0
 40 35  1  0  0  0
 41 40  1  0  0  0
 40 38  1  0  0  0
 38 39  1  0  0  0
 38 36  1  0  0  0
 36 37  1  0  0  0
 50 41  1  0  0  0
 41 42  1  0  0  0
 43 42  2  0  0  0
 44 43  1  0  0  0
 44 50  2  0  0  0
 45 44  1  0  0  0
 47 45  2  0  0  0
 45 46  1  0  0  0
 47 48  1  0  0  0
 48 49  2  0  0  0
 49 50  1  0  0  0
M  END
$$$$
