### 
### Created by X-TOOL on Tue Oct 25 02:06:57 2005
### 

@<TRIPOS>MOLECULE
2adm_ligand
   50    52     1     0     0
SMALL
GAST_HUCK


@<TRIPOS>ATOM
      1 H241        1.4443   34.7344   45.9518 H         1 SUB1        0.202
      2 H242        2.8817   35.4385   46.3361 H         1 SUB1        0.202
      3 H243        2.5738   33.8896   46.8003 H         1 SUB1        0.202
      4 H251        2.5155   33.1304   44.5869 H         1 SUB1        0.107
      5 H291        1.6935   34.8719   43.3114 H         1 SUB1        0.040
      6 H292        3.4342   34.8731   42.8682 H         1 SUB1        0.040
      7 H301        3.7494   36.7065   44.6031 H         1 SUB1        0.084
      8 H302        1.9583   36.7965   44.7058 H         1 SUB1        0.084
      9 H321        4.1079   39.5526   42.2374 H         1 SUB1        0.080
     10 H322        4.9788   38.3097   43.1982 H         1 SUB1        0.080
     11 H323        3.7162   39.3238   43.9754 H         1 SUB1        0.080
     12 H331        1.2373   39.2450   41.8151 H         1 SUB1        0.087
     13 H332        1.0514   38.9391   43.5754 H         1 SUB1        0.087
     14 H341        0.2167   36.5717   42.7624 H         1 SUB1        0.067
     15 H361        0.4725   38.0574   40.2624 H         1 SUB1        0.065
     16 H371       -0.4572   35.4326   40.9380 H         1 SUB1        0.210
     17 H381       -1.7121   38.4558   39.7336 H         1 SUB1        0.068
     18 H391       -2.0493   36.1809   39.4145 H         1 SUB1        0.210
     19 H401       -3.1090   37.8325   42.1175 H         1 SUB1        0.100
     20 H421       -1.1712   40.3287   40.0436 H         1 SUB1        0.131
     21 H461       -4.7908   44.7087   42.4524 H         1 SUB1        0.182
     22 H462       -3.4757   44.3620   41.2978 H         1 SUB1        0.182
     23 H481       -5.5970   40.8385   44.6125 H         1 SUB1        0.108
     24 N           2.4320   34.5750   46.0750 N.4       1 SUB1        0.238
     25 CA          3.0060   34.0860   44.8240 C.3       1 SUB1        0.019
     26 C           4.5160   33.8170   44.9280 C.2       1 SUB1        0.076
     27 O           5.1060   34.1460   45.9810 O.co2     1 SUB1       -0.561
     28 OXT         5.0940   33.2780   43.9560 O.co2     1 SUB1       -0.561
     29 CB          2.7130   35.0660   43.6760 C.3       1 SUB1        0.047
     30 CG          2.8090   36.5410   44.0570 C.3       1 SUB1        0.117
     31 SD          2.7800   37.6130   42.6110 S.3       1 SUB1       -0.010
     32 CE          4.0130   38.8140   43.0470 C.3       1 SUB1        0.100
     33 C5'         1.2030   38.4680   42.5930 C.3       1 SUB1        0.138
     34 C4'         0.0180   37.5540   42.3090 C.3       1 SUB1        0.135
     35 O4'        -1.1880   38.0960   42.8710 O.3       1 SUB1       -0.334
     36 C3'        -0.1880   37.3780   40.8210 C.3       1 SUB1        0.117
     37 O3'         0.0950   36.0230   40.4390 O.3       1 SUB1       -0.386
     38 C2'        -1.6380   37.7280   40.5550 C.3       1 SUB1        0.139
     39 O2'        -2.3850   36.5500   40.2230 O.3       1 SUB1       -0.384
     40 C1'        -2.1650   38.3270   41.8450 C.3       1 SUB1        0.202
     41 N9         -2.4090   39.7780   41.6950 N.pl3     1 SUB1       -0.191
     42 C8         -1.8940   40.6480   40.7930 C.2       1 SUB1        0.110
     43 N7         -2.2970   41.8690   40.8610 N.2       1 SUB1       -0.301
     44 C5         -3.1890   41.8280   41.9360 C.2       1 SUB1        0.105
     45 C6         -4.0820   42.7790   42.4610 C.2       1 SUB1        0.125
     46 N6         -4.1190   44.0470   42.0380 N.pl3     1 SUB1       -0.313
     47 N1         -4.9290   42.3680   43.4310 N.2       1 SUB1       -0.274
     48 C2         -4.8880   41.1020   43.8360 C.2       1 SUB1        0.053
     49 N3         -4.1020   40.1160   43.4240 N.2       1 SUB1       -0.266
     50 C4         -3.2630   40.5520   42.4530 C.2       1 SUB1        0.163
@<TRIPOS>BOND
     1   24    1 1  
     2   24    2 1  
     3   24    3 1  
     4   25    4 1  
     5   29    5 1  
     6   29    6 1  
     7   30    7 1  
     8   30    8 1  
     9   32    9 1  
    10   32   10 1  
    11   32   11 1  
    12   33   12 1  
    13   33   13 1  
    14   34   14 1  
    15   36   15 1  
    16   37   16 1  
    17   38   17 1  
    18   39   18 1  
    19   40   19 1  
    20   42   20 1  
    21   46   21 1  
    22   46   22 1  
    23   48   23 1  
    24   25   24 1  
    25   29   25 1  
    26   25   26 1  
    27   26   28 2  
    28   26   27 2  
    29   30   29 1  
    30   31   30 1  
    31   33   31 1  
    32   31   32 1  
    33   34   33 1  
    34   36   34 1  
    35   35   34 1  
    36   40   35 1  
    37   41   40 1  
    38   40   38 1  
    39   38   39 1  
    40   38   36 1  
    41   36   37 1  
    42   50   41 1  
    43   41   42 1  
    44   43   42 2  
    45   44   43 1  
    46   44   50 2  
    47   45   44 1  
    48   47   45 2  
    49   45   46 1  
    50   47   48 1  
    51   48   49 2  
    52   49   50 1  
@<TRIPOS>SUBSTRUCTURE
     1 SUB1        1 GROUP

