1uwu_ligand
  -I-interpret- 

 25 25  0  0  0  0  0  0  0  0999 V2000
   74.5520   21.0060   89.4610 C   0  0  0  0  0
   75.0040   21.1720   90.6950 N   0  0  0  0  0
   73.8000   22.2220   88.8780 C   0  0  0  0  0
   74.7720   19.7820   88.7940 N   0  0  0  0  0
   75.8450   20.1790   91.2060 O   0  0  0  0  0
   72.7420   22.5540   89.7360 O   0  0  0  0  0
   73.2510   21.9150   87.4810 C   0  0  0  0  0
   72.9960   23.2170   86.9110 O   0  0  0  0  0
   74.2960   21.0370   86.7040 C   0  0  0  0  0
   73.9330   20.9240   85.3500 O   0  0  0  0  0
   74.3700   19.6410   87.3900 C   0  0  0  0  0
   75.3780   18.6410   86.7940 C   0  0  0  0  0
   76.6830   19.1360   86.9310 O   0  0  0  0  0
   75.4944   21.3850   89.0388 H   0  0  0  0  0
   74.4936   23.0730   88.8087 H   0  0  0  0  0
   74.2430   19.0220   89.3498 H   0  0  0  0  0
   72.2735   23.3019   89.3845 H   0  0  0  0  0
   72.3070   21.3545   87.5486 H   0  0  0  0  0
   72.3651   23.6794   87.4501 H   0  0  0  0  0
   75.2843   21.5165   86.7623 H   0  0  0  0  0
   73.9031   21.7889   84.9581 H   0  0  0  0  0
   73.3656   19.1958   87.3360 H   0  0  0  0  0
   75.1553   18.4914   85.7272 H   0  0  0  0  0
   75.2952   17.6807   87.3240 H   0  0  0  0  0
   77.2973   18.5130   86.5609 H   0  0  0  0  0
  1  2  1  0  0  0
  1  3  1  0  0  0
  1  4  1  0  0  0
  2  5  2  0  0  0
  3  6  1  0  0  0
  3  7  1  0  0  0
  4 11  1  0  0  0
  7  8  1  0  0  0
  7  9  1  0  0  0
  9 10  1  0  0  0
  9 11  1  0  0  0
 11 12  1  0  0  0
 12 13  1  0  0  0
  1 14  1  0  0  0
  3 15  1  0  0  0
  4 16  1  0  0  0
  6 17  1  0  0  0
  7 18  1  0  0  0
  8 19  1  0  0  0
  9 20  1  0  0  0
 10 21  1  0  0  0
 11 22  1  0  0  0
 12 23  1  0  0  0
 12 24  1  0  0  0
 13 25  1  0  0  0
M  END
$$$$
