### 
### Created by X-TOOL on Mon Oct 24 23:26:44 2005
### 

@<TRIPOS>MOLECULE
1uwu_ligand
   25    25     1     0     0
SMALL
GAST_HUCK


@<TRIPOS>ATOM
      1 C1         74.5520   21.0060   89.4610 C.3       1 SUB1        0.187
      2 N1         75.0040   21.1720   90.6950 N.2       1 SUB1       -0.039
      3 C2         73.8000   22.2220   88.8780 C.3       1 SUB1        0.127
      4 N5         74.7720   19.7820   88.7940 N.3       1 SUB1       -0.278
      5 O7         75.8450   20.1790   91.2060 O.2       1 SUB1       -0.190
      6 O2         72.7420   22.5540   89.7360 O.3       1 SUB1       -0.385
      7 C3         73.2510   21.9150   87.4810 C.3       1 SUB1        0.112
      8 O3         72.9960   23.2170   86.9110 O.3       1 SUB1       -0.387
      9 C4         74.2960   21.0370   86.7040 C.3       1 SUB1        0.101
     10 O4         73.9330   20.9240   85.3500 O.3       1 SUB1       -0.387
     11 C5         74.3700   19.6410   87.3900 C.3       1 SUB1        0.062
     12 C6         75.3780   18.6410   86.7940 C.3       1 SUB1        0.062
     13 O6         76.6830   19.1360   86.9310 O.3       1 SUB1       -0.393
     14 H11        75.4944   21.3850   89.0388 H         1 SUB1        0.084
     15 H31        74.4936   23.0730   88.8087 H         1 SUB1        0.066
     16 H41        74.2430   19.0220   89.3498 H         1 SUB1        0.125
     17 H61        72.2735   23.3019   89.3845 H         1 SUB1        0.210
     18 H71        72.3070   21.3545   87.5486 H         1 SUB1        0.065
     19 H81        72.3651   23.6794   87.4501 H         1 SUB1        0.210
     20 H91        75.2843   21.5165   86.7623 H         1 SUB1        0.064
     21 H101       73.9031   21.7889   84.9581 H         1 SUB1        0.210
     22 H111       73.3656   19.1958   87.3360 H         1 SUB1        0.051
     23 H121       75.1553   18.4914   85.7272 H         1 SUB1        0.057
     24 H122       75.2952   17.6807   87.3240 H         1 SUB1        0.057
     25 H131       77.2973   18.5130   86.5609 H         1 SUB1        0.209
@<TRIPOS>BOND
     1    1    2 1  
     2    1    3 1  
     3    1    4 1  
     4    2    5 2  
     5    3    6 1  
     6    3    7 1  
     7    4   11 1  
     8    7    8 1  
     9    7    9 1  
    10    9   10 1  
    11    9   11 1  
    12   11   12 1  
    13   12   13 1  
    14    1   14 1  
    15    3   15 1  
    16    4   16 1  
    17    6   17 1  
    18    7   18 1  
    19    8   19 1  
    20    9   20 1  
    21   10   21 1  
    22   11   22 1  
    23   12   23 1  
    24   12   24 1  
    25   13   25 1  
@<TRIPOS>SUBSTRUCTURE
     1 SUB1        1 GROUP

