### 
### Created by X-TOOL on Mon Oct 24 21:52:40 2005
### 

@<TRIPOS>MOLECULE
1oai_ligand
  124   125     1     0     0
SMALL
GAST_HUCK


@<TRIPOS>ATOM
      1 N          -7.1970   43.7480  -10.8460 N.4       1 SUB1        0.240
      2 CA         -6.7680   42.3300  -10.6850 C.3       1 SUB1        0.076
      3 C          -5.5670   42.0240  -11.5780 C.2       1 SUB1        0.230
      4 O          -5.3940   40.8810  -12.0330 O.2       1 SUB1       -0.390
      5 CB         -7.9180   41.3510  -10.9770 C.3       1 SUB1        0.047
      6 CG         -9.2240   41.7580  -10.3120 C.2       1 SUB1        0.036
      7 OD1        -9.2200   42.7430   -9.5240 O.co2     1 SUB1       -0.566
      8 OD2       -10.3150   41.1550  -10.5230 O.co2     1 SUB1       -0.566
      9 N          -4.7540   43.0460  -11.8590 N.am      1 SUB1       -0.259
     10 CA         -3.4900   42.8430  -12.5750 C.3       1 SUB1        0.154
     11 C          -2.3730   42.4030  -11.6290 C.2       1 SUB1        0.206
     12 O          -2.2840   42.8100  -10.4600 O.2       1 SUB1       -0.394
     13 CB         -3.0490   44.1440  -13.3240 C.3       1 SUB1        0.084
     14 OG         -2.9030   45.1880  -12.4110 O.3       1 SUB1       -0.390
     15 N          -1.4780   41.6070  -12.1880 N.am      1 SUB1       -0.266
     16 CA         -0.2590   41.2280  -11.5460 C.3       1 SUB1        0.120
     17 C          -0.3500   39.8310  -10.9520 C.2       1 SUB1        0.201
     18 O          -1.1400   38.9990  -11.3840 O.2       1 SUB1       -0.395
     19 N           0.5050   39.5650   -9.9890 N.am      1 SUB1       -0.262
     20 CA          0.5740   38.2400   -9.3650 C.3       1 SUB1        0.140
     21 C          -0.5090   38.0630   -8.3420 C.2       1 SUB1        0.206
     22 O          -0.7230   38.9400   -7.5480 O.2       1 SUB1       -0.394
     23 CB          1.9500   38.0350   -8.7400 C.3       1 SUB1        0.021
     24 CG          2.1900   36.5930   -8.3770 C.ar      1 SUB1       -0.039
     25 CD1         2.6740   35.7020   -9.3240 C.ar      1 SUB1       -0.060
     26 CD2         1.8940   36.1060   -7.1150 C.ar      1 SUB1       -0.060
     27 CE1         2.8580   34.3780   -9.0300 C.ar      1 SUB1       -0.069
     28 CE2         2.1020   34.7950   -6.8160 C.ar      1 SUB1       -0.069
     29 CZ          2.5700   33.9270   -7.7460 C.ar      1 SUB1       -0.069
     30 N          -1.2030   36.9130   -8.3770 N.am      1 SUB1       -0.261
     31 CA         -2.1080   36.5860   -7.3070 C.3       1 SUB1        0.154
     32 C          -1.9530   35.1390   -6.8950 C.2       1 SUB1        0.206
     33 O          -1.5970   34.2750   -7.7270 O.2       1 SUB1       -0.394
     34 CB         -3.4760   36.9490   -7.5710 C.3       1 SUB1        0.084
     35 OG         -3.9110   36.1480   -8.5050 O.3       1 SUB1       -0.390
     36 N          -2.2230   34.8810   -5.6430 N.am      1 SUB1       -0.262
     37 CA         -2.1990   33.5090   -5.1170 C.3       1 SUB1        0.140
     38 C          -3.5740   32.8530   -5.1420 C.2       1 SUB1        0.206
     39 O          -4.5530   33.4490   -4.8980 O.2       1 SUB1       -0.394
     40 CB         -1.7280   33.5570   -3.6640 C.3       1 SUB1        0.021
     41 CG         -0.2970   33.9830   -3.4910 C.ar      1 SUB1       -0.039
     42 CD1         0.0270   35.3370   -3.3570 C.ar      1 SUB1       -0.060
     43 CD2         0.7190   33.0480   -3.3890 C.ar      1 SUB1       -0.060
     44 CE1         1.3490   35.7080   -3.1550 C.ar      1 SUB1       -0.069
     45 CE2         2.0490   33.4370   -3.1920 C.ar      1 SUB1       -0.069
     46 CZ          2.3390   34.7790   -3.0620 C.ar      1 SUB1       -0.069
     47 N          -3.6540   31.5620   -5.2530 N.am      1 SUB1       -0.266
     48 CA         -4.8880   30.7390   -5.2930 C.3       1 SUB1        0.120
     49 C          -5.8410   30.9510   -6.4620 C.2       1 SUB1        0.201
     50 O          -5.6450   31.8160   -7.3500 O.2       1 SUB1       -0.395
     51 N          -6.9290   30.1840   -6.4580 N.am      1 SUB1       -0.262
     52 CA         -7.7920   30.0780   -7.6250 C.3       1 SUB1        0.154
     53 C          -8.7980   31.2030   -7.8520 C.2       1 SUB1        0.207
     54 O          -9.4480   31.2390   -8.8910 O.2       1 SUB1       -0.394
     55 CB         -8.5850   28.8000   -7.4730 C.3       1 SUB1        0.084
     56 OG         -9.4440   28.7950   -6.3080 O.3       1 SUB1       -0.390
     57 N          -8.8910   32.1560   -6.9280 N.am      1 SUB1       -0.268
     58 CA         -9.8870   33.2290   -7.0720 C.3       1 SUB1        0.081
     59 C          -9.6700   34.0250   -8.3510 C.2       1 SUB1        0.053
     60 O          -8.5350   34.3100   -8.7120 O.co2     1 SUB1       -0.564
     61 CB         -9.8270   34.1630   -5.8780 C.3       1 SUB1       -0.018
     62 CG        -11.0480   35.0830   -5.7300 C.3       1 SUB1       -0.043
     63 CD        -10.9450   35.9290   -4.4630 C.3       1 SUB1       -0.012
     64 CE        -10.9100   35.0840   -3.1740 C.3       1 SUB1       -0.035
     65 NZ        -10.2230   35.7890   -1.9990 N.4       1 SUB1        0.219
     66 OXT       -10.6140   34.3890   -9.0740 O.co2     1 SUB1       -0.564
     67 H11        -6.6503   44.1928  -11.5665 H         1 SUB1        0.202
     68 H21        -6.4474   42.1842   -9.6429 H         1 SUB1        0.114
     69 H51        -8.0870   41.3114  -12.0632 H         1 SUB1        0.057
     70 H52        -7.6316   40.3487  -10.6257 H         1 SUB1        0.057
     71 H91        -5.0127   43.9693  -11.5751 H         1 SUB1        0.189
     72 H101       -3.6356   42.0410  -13.3136 H         1 SUB1        0.082
     73 H131       -2.0852   43.9750  -13.8264 H         1 SUB1        0.061
     74 H132       -3.8016   44.4102  -14.0808 H         1 SUB1        0.061
     75 H141       -2.2428   44.9555  -11.7687 H         1 SUB1        0.210
     76 H12        -7.0502   44.2414   -9.9655 H         1 SUB1        0.202
     77 H151       -1.6630   41.2528  -13.1047 H         1 SUB1        0.188
     78 H161        0.5582   41.2386  -12.2823 H         1 SUB1        0.076
     79 H162       -0.0282   41.9506  -10.7494 H         1 SUB1        0.076
     80 H191        1.1239   40.2847   -9.6743 H         1 SUB1        0.189
     81 H201        0.4202   37.4761  -10.1414 H         1 SUB1        0.082
     82 H231        2.7240   38.3439   -9.4579 H         1 SUB1        0.047
     83 H232        2.0343   38.6581   -7.8375 H         1 SUB1        0.047
     84 H251        2.9116   36.0623  -10.3184 H         1 SUB1        0.056
     85 H261        1.4940   36.7735   -6.3604 H         1 SUB1        0.056
     86 H271        3.2224   33.6917   -9.7858 H         1 SUB1        0.060
     87 H281        1.8894   34.4379   -5.8149 H         1 SUB1        0.060
     88 H291        2.7194   32.8843   -7.4899 H         1 SUB1        0.056
     89 H301       -1.0906   36.2844   -9.1466 H         1 SUB1        0.188
     90 H311       -1.7942   37.1799   -6.4360 H         1 SUB1        0.082
     91 H341       -4.0879   36.8234   -6.6656 H         1 SUB1        0.061
     92 H342       -3.5389   37.9970   -7.8990 H         1 SUB1        0.061
     93 H351       -3.8545   35.2495   -8.2017 H         1 SUB1        0.210
     94 H361       -2.4515   35.6355   -5.0277 H         1 SUB1        0.189
     95 H371       -1.5123   32.8979   -5.7210 H         1 SUB1        0.082
     96 H401       -2.3577   34.2719   -3.1142 H         1 SUB1        0.047
     97 H402       -1.8556   32.5582   -3.2213 H         1 SUB1        0.047
     98 H421       -0.7493   36.0916   -3.4106 H         1 SUB1        0.056
     99 H431        0.4796   31.9934   -3.4632 H         1 SUB1        0.056
    100 H441        1.5981   36.7595   -3.0695 H         1 SUB1        0.060
    101 H451        2.8382   32.6956   -3.1424 H         1 SUB1        0.060
    102 H461        3.3606   35.0953   -2.8849 H         1 SUB1        0.056
    103 H471       -2.7875   31.0671   -5.3189 H         1 SUB1        0.188
    104 H481       -4.5858   29.6816   -5.3169 H         1 SUB1        0.076
    105 H482       -5.4459   30.9278   -4.3640 H         1 SUB1        0.076
    106 H511       -7.1590   29.6680   -5.6329 H         1 SUB1        0.188
    107 H521       -7.1555   30.0279   -8.5207 H         1 SUB1        0.082
    108 H551       -9.2193   28.6669   -8.3618 H         1 SUB1        0.061
    109 H552       -7.8855   27.9538   -7.4063 H         1 SUB1        0.061
    110 H561       -9.9142   27.9706   -6.2662 H         1 SUB1        0.210
    111 H571       -8.2828   32.1428   -6.1343 H         1 SUB1        0.190
    112 H581      -10.8881   32.7763   -7.1252 H         1 SUB1        0.078
    113 H611       -9.7530   33.5577   -4.9626 H         1 SUB1        0.032
    114 H612       -8.9243   34.7854   -5.9658 H         1 SUB1        0.032
    115 H621      -11.1052   35.7579   -6.5967 H         1 SUB1        0.027
    116 H622      -11.9631   34.4737   -5.6939 H         1 SUB1        0.027
    117 H631      -10.0202   36.5231   -4.5047 H         1 SUB1        0.032
    118 H632      -11.8049   36.6136   -4.4209 H         1 SUB1        0.032
    119 H641      -11.9425   34.8540   -2.8724 H         1 SUB1        0.081
    120 H642      -10.3830   34.1414   -3.3828 H         1 SUB1        0.081
    121 H651      -10.2348   35.1780   -1.1974 H         1 SUB1        0.199
    122 H652       -9.2665   36.0002   -2.2366 H         1 SUB1        0.199
    123 H653      -10.7027   36.6496   -1.7864 H         1 SUB1        0.199
    124 H13        -8.1700   43.7854  -11.1066 H         1 SUB1        0.202
@<TRIPOS>BOND
     1    2    1 1  
     2    2    5 1  
     3    3    2 1  
     4    3    4 2  
     5    5    6 1  
     6    6    7 2  
     7    6    8 2  
     8   10    9 1  
     9   10   13 1  
    10   11   10 1  
    11   11   12 2  
    12   13   14 1  
    13    9    3 am 
    14   16   15 1  
    15   17   16 1  
    16   17   18 2  
    17   15   11 am 
    18   20   19 1  
    19   20   23 1  
    20   21   20 1  
    21   21   22 2  
    22   23   24 1  
    23   24   25 ar 
    24   24   26 ar 
    25   26   28 ar 
    26   28   29 ar 
    27   27   29 ar 
    28   25   27 ar 
    29   19   17 am 
    30   31   30 1  
    31   31   34 1  
    32   32   31 1  
    33   32   33 2  
    34   34   35 1  
    35   30   21 am 
    36   37   36 1  
    37   37   40 1  
    38   38   37 1  
    39   38   39 2  
    40   40   41 1  
    41   41   42 ar 
    42   41   43 ar 
    43   43   45 ar 
    44   45   46 ar 
    45   44   46 ar 
    46   42   44 ar 
    47   36   32 am 
    48   48   47 1  
    49   49   48 1  
    50   49   50 2  
    51   47   38 am 
    52   52   51 1  
    53   52   55 1  
    54   53   52 1  
    55   53   54 2  
    56   55   56 1  
    57   51   49 am 
    58   57   58 1  
    59   58   61 1  
    60   58   59 1  
    61   59   60 2  
    62   59   66 2  
    63   61   62 1  
    64   62   63 1  
    65   63   64 1  
    66   64   65 1  
    67   53   57 am 
    68    1   76 1  
    69    1   67 1  
    70    2   68 1  
    71    5   69 1  
    72    5   70 1  
    73    9   71 1  
    74   10   72 1  
    75   13   73 1  
    76   13   74 1  
    77   14   75 1  
    78   15   77 1  
    79   16   78 1  
    80   16   79 1  
    81   19   80 1  
    82   20   81 1  
    83   23   82 1  
    84   23   83 1  
    85   25   84 1  
    86   26   85 1  
    87   27   86 1  
    88   28   87 1  
    89   29   88 1  
    90   30   89 1  
    91   31   90 1  
    92   34   91 1  
    93   34   92 1  
    94   35   93 1  
    95   36   94 1  
    96   37   95 1  
    97   40   96 1  
    98   40   97 1  
    99   42   98 1  
   100   43   99 1  
   101   44  100 1  
   102   45  101 1  
   103   46  102 1  
   104   47  103 1  
   105   48  104 1  
   106   48  105 1  
   107   51  106 1  
   108   52  107 1  
   109   55  108 1  
   110   55  109 1  
   111   56  110 1  
   112   57  111 1  
   113   58  112 1  
   114   61  113 1  
   115   61  114 1  
   116   62  115 1  
   117   62  116 1  
   118   63  117 1  
   119   63  118 1  
   120   64  119 1  
   121   64  120 1  
   122   65  121 1  
   123   65  122 1  
   124   65  123 1  
   125    1  124 1  
@<TRIPOS>SUBSTRUCTURE
     1 SUB1        1 GROUP

