1oai_ligand
  -I-interpret- 

124125  0  0  0  0  0  0  0  0999 V2000
   -7.1970   43.7480  -10.8460 N   0  3  0  0  0
   -6.7680   42.3300  -10.6850 C   0  0  0  0  0
   -5.5670   42.0240  -11.5780 C   0  0  0  0  0
   -5.3940   40.8810  -12.0330 O   0  0  0  0  0
   -7.9180   41.3510  -10.9770 C   0  0  0  0  0
   -9.2240   41.7580  -10.3120 C   0  0  0  0  0
   -9.2200   42.7430   -9.5240 O   0  0  0  0  0
  -10.3150   41.1550  -10.5230 O   0  5  0  0  0
   -4.7540   43.0460  -11.8590 N   0  0  0  0  0
   -3.4900   42.8430  -12.5750 C   0  0  0  0  0
   -2.3730   42.4030  -11.6290 C   0  0  0  0  0
   -2.2840   42.8100  -10.4600 O   0  0  0  0  0
   -3.0490   44.1440  -13.3240 C   0  0  0  0  0
   -2.9030   45.1880  -12.4110 O   0  0  0  0  0
   -1.4780   41.6070  -12.1880 N   0  0  0  0  0
   -0.2590   41.2280  -11.5460 C   0  0  0  0  0
   -0.3500   39.8310  -10.9520 C   0  0  0  0  0
   -1.1400   38.9990  -11.3840 O   0  0  0  0  0
    0.5050   39.5650   -9.9890 N   0  0  0  0  0
    0.5740   38.2400   -9.3650 C   0  0  0  0  0
   -0.5090   38.0630   -8.3420 C   0  0  0  0  0
   -0.7230   38.9400   -7.5480 O   0  0  0  0  0
    1.9500   38.0350   -8.7400 C   0  0  0  0  0
    2.1900   36.5930   -8.3770 C   0  0  0  0  0
    2.6740   35.7020   -9.3240 C   0  0  0  0  0
    1.8940   36.1060   -7.1150 C   0  0  0  0  0
    2.8580   34.3780   -9.0300 C   0  0  0  0  0
    2.1020   34.7950   -6.8160 C   0  0  0  0  0
    2.5700   33.9270   -7.7460 C   0  0  0  0  0
   -1.2030   36.9130   -8.3770 N   0  0  0  0  0
   -2.1080   36.5860   -7.3070 C   0  0  0  0  0
   -1.9530   35.1390   -6.8950 C   0  0  0  0  0
   -1.5970   34.2750   -7.7270 O   0  0  0  0  0
   -3.4760   36.9490   -7.5710 C   0  0  0  0  0
   -3.9110   36.1480   -8.5050 O   0  0  0  0  0
   -2.2230   34.8810   -5.6430 N   0  0  0  0  0
   -2.1990   33.5090   -5.1170 C   0  0  0  0  0
   -3.5740   32.8530   -5.1420 C   0  0  0  0  0
   -4.5530   33.4490   -4.8980 O   0  0  0  0  0
   -1.7280   33.5570   -3.6640 C   0  0  0  0  0
   -0.2970   33.9830   -3.4910 C   0  0  0  0  0
    0.0270   35.3370   -3.3570 C   0  0  0  0  0
    0.7190   33.0480   -3.3890 C   0  0  0  0  0
    1.3490   35.7080   -3.1550 C   0  0  0  0  0
    2.0490   33.4370   -3.1920 C   0  0  0  0  0
    2.3390   34.7790   -3.0620 C   0  0  0  0  0
   -3.6540   31.5620   -5.2530 N   0  0  0  0  0
   -4.8880   30.7390   -5.2930 C   0  0  0  0  0
   -5.8410   30.9510   -6.4620 C   0  0  0  0  0
   -5.6450   31.8160   -7.3500 O   0  0  0  0  0
   -6.9290   30.1840   -6.4580 N   0  0  0  0  0
   -7.7920   30.0780   -7.6250 C   0  0  0  0  0
   -8.7980   31.2030   -7.8520 C   0  0  0  0  0
   -9.4480   31.2390   -8.8910 O   0  0  0  0  0
   -8.5850   28.8000   -7.4730 C   0  0  0  0  0
   -9.4440   28.7950   -6.3080 O   0  0  0  0  0
   -8.8910   32.1560   -6.9280 N   0  0  0  0  0
   -9.8870   33.2290   -7.0720 C   0  0  0  0  0
   -9.6700   34.0250   -8.3510 C   0  0  0  0  0
   -8.5350   34.3100   -8.7120 O   0  0  0  0  0
   -9.8270   34.1630   -5.8780 C   0  0  0  0  0
  -11.0480   35.0830   -5.7300 C   0  0  0  0  0
  -10.9450   35.9290   -4.4630 C   0  0  0  0  0
  -10.9100   35.0840   -3.1740 C   0  0  0  0  0
  -10.2230   35.7890   -1.9990 N   0  3  0  0  0
  -10.6140   34.3890   -9.0740 O   0  5  0  0  0
   -6.6503   44.1928  -11.5665 H   0  0  0  0  0
   -6.4474   42.1842   -9.6429 H   0  0  0  0  0
   -8.0870   41.3114  -12.0632 H   0  0  0  0  0
   -7.6316   40.3487  -10.6257 H   0  0  0  0  0
   -5.0127   43.9693  -11.5751 H   0  0  0  0  0
   -3.6356   42.0410  -13.3136 H   0  0  0  0  0
   -2.0852   43.9750  -13.8264 H   0  0  0  0  0
   -3.8016   44.4102  -14.0808 H   0  0  0  0  0
   -2.2428   44.9555  -11.7687 H   0  0  0  0  0
   -7.0502   44.2414   -9.9655 H   0  0  0  0  0
   -1.6630   41.2528  -13.1047 H   0  0  0  0  0
    0.5582   41.2386  -12.2823 H   0  0  0  0  0
   -0.0282   41.9506  -10.7494 H   0  0  0  0  0
    1.1239   40.2847   -9.6743 H   0  0  0  0  0
    0.4202   37.4761  -10.1414 H   0  0  0  0  0
    2.7240   38.3439   -9.4579 H   0  0  0  0  0
    2.0343   38.6581   -7.8375 H   0  0  0  0  0
    2.9116   36.0623  -10.3184 H   0  0  0  0  0
    1.4940   36.7735   -6.3604 H   0  0  0  0  0
    3.2224   33.6917   -9.7858 H   0  0  0  0  0
    1.8894   34.4379   -5.8149 H   0  0  0  0  0
    2.7194   32.8843   -7.4899 H   0  0  0  0  0
   -1.0906   36.2844   -9.1466 H   0  0  0  0  0
   -1.7942   37.1799   -6.4360 H   0  0  0  0  0
   -4.0879   36.8234   -6.6656 H   0  0  0  0  0
   -3.5389   37.9970   -7.8990 H   0  0  0  0  0
   -3.8545   35.2495   -8.2017 H   0  0  0  0  0
   -2.4515   35.6355   -5.0277 H   0  0  0  0  0
   -1.5123   32.8979   -5.7210 H   0  0  0  0  0
   -2.3577   34.2719   -3.1142 H   0  0  0  0  0
   -1.8556   32.5582   -3.2213 H   0  0  0  0  0
   -0.7493   36.0916   -3.4106 H   0  0  0  0  0
    0.4796   31.9934   -3.4632 H   0  0  0  0  0
    1.5981   36.7595   -3.0695 H   0  0  0  0  0
    2.8382   32.6956   -3.1424 H   0  0  0  0  0
    3.3606   35.0953   -2.8849 H   0  0  0  0  0
   -2.7875   31.0671   -5.3189 H   0  0  0  0  0
   -4.5858   29.6816   -5.3169 H   0  0  0  0  0
   -5.4459   30.9278   -4.3640 H   0  0  0  0  0
   -7.1590   29.6680   -5.6329 H   0  0  0  0  0
   -7.1555   30.0279   -8.5207 H   0  0  0  0  0
   -9.2193   28.6669   -8.3618 H   0  0  0  0  0
   -7.8855   27.9538   -7.4063 H   0  0  0  0  0
   -9.9142   27.9706   -6.2662 H   0  0  0  0  0
   -8.2828   32.1428   -6.1343 H   0  0  0  0  0
  -10.8881   32.7763   -7.1252 H   0  0  0  0  0
   -9.7530   33.5577   -4.9626 H   0  0  0  0  0
   -8.9243   34.7854   -5.9658 H   0  0  0  0  0
  -11.1052   35.7579   -6.5967 H   0  0  0  0  0
  -11.9631   34.4737   -5.6939 H   0  0  0  0  0
  -10.0202   36.5231   -4.5047 H   0  0  0  0  0
  -11.8049   36.6136   -4.4209 H   0  0  0  0  0
  -11.9425   34.8540   -2.8724 H   0  0  0  0  0
  -10.3830   34.1414   -3.3828 H   0  0  0  0  0
  -10.2348   35.1780   -1.1974 H   0  0  0  0  0
   -9.2665   36.0002   -2.2366 H   0  0  0  0  0
  -10.7027   36.6496   -1.7864 H   0  0  0  0  0
   -8.1700   43.7854  -11.1066 H   0  0  0  0  0
  2  1  1  0  0  0
  2  5  1  0  0  0
  3  2  1  0  0  0
  3  4  2  0  0  0
  5  6  1  0  0  0
  6  7  2  0  0  0
  6  8  1  0  0  0
 10  9  1  0  0  0
 10 13  1  0  0  0
 11 10  1  0  0  0
 11 12  2  0  0  0
 13 14  1  0  0  0
  9  3  1  0  0  0
 16 15  1  0  0  0
 17 16  1  0  0  0
 17 18  2  0  0  0
 15 11  1  0  0  0
 20 19  1  0  0  0
 20 23  1  0  0  0
 21 20  1  0  0  0
 21 22  2  0  0  0
 23 24  1  0  0  0
 24 25  4  0  0  0
 24 26  4  0  0  0
 26 28  4  0  0  0
 28 29  4  0  0  0
 27 29  4  0  0  0
 25 27  4  0  0  0
 19 17  1  0  0  0
 31 30  1  0  0  0
 31 34  1  0  0  0
 32 31  1  0  0  0
 32 33  2  0  0  0
 34 35  1  0  0  0
 30 21  1  0  0  0
 37 36  1  0  0  0
 37 40  1  0  0  0
 38 37  1  0  0  0
 38 39  2  0  0  0
 40 41  1  0  0  0
 41 42  4  0  0  0
 41 43  4  0  0  0
 43 45  4  0  0  0
 45 46  4  0  0  0
 44 46  4  0  0  0
 42 44  4  0  0  0
 36 32  1  0  0  0
 48 47  1  0  0  0
 49 48  1  0  0  0
 49 50  2  0  0  0
 47 38  1  0  0  0
 52 51  1  0  0  0
 52 55  1  0  0  0
 53 52  1  0  0  0
 53 54  2  0  0  0
 55 56  1  0  0  0
 51 49  1  0  0  0
 57 58  1  0  0  0
 58 61  1  0  0  0
 58 59  1  0  0  0
 59 60  2  0  0  0
 59 66  1  0  0  0
 61 62  1  0  0  0
 62 63  1  0  0  0
 63 64  1  0  0  0
 64 65  1  0  0  0
 53 57  1  0  0  0
  1 76  1  0  0  0
  1 67  1  0  0  0
  2 68  1  0  0  0
  5 69  1  0  0  0
  5 70  1  0  0  0
  9 71  1  0  0  0
 10 72  1  0  0  0
 13 73  1  0  0  0
 13 74  1  0  0  0
 14 75  1  0  0  0
 15 77  1  0  0  0
 16 78  1  0  0  0
 16 79  1  0  0  0
 19 80  1  0  0  0
 20 81  1  0  0  0
 23 82  1  0  0  0
 23 83  1  0  0  0
 25 84  1  0  0  0
 26 85  1  0  0  0
 27 86  1  0  0  0
 28 87  1  0  0  0
 29 88  1  0  0  0
 30 89  1  0  0  0
 31 90  1  0  0  0
 34 91  1  0  0  0
 34 92  1  0  0  0
 35 93  1  0  0  0
 36 94  1  0  0  0
 37 95  1  0  0  0
 40 96  1  0  0  0
 40 97  1  0  0  0
 42 98  1  0  0  0
 43 99  1  0  0  0
 44100  1  0  0  0
 45101  1  0  0  0
 46102  1  0  0  0
 47103  1  0  0  0
 48104  1  0  0  0
 48105  1  0  0  0
 51106  1  0  0  0
 52107  1  0  0  0
 55108  1  0  0  0
 55109  1  0  0  0
 56110  1  0  0  0
 57111  1  0  0  0
 58112  1  0  0  0
 61113  1  0  0  0
 61114  1  0  0  0
 62115  1  0  0  0
 62116  1  0  0  0
 63117  1  0  0  0
 63118  1  0  0  0
 64119  1  0  0  0
 64120  1  0  0  0
 65121  1  0  0  0
 65122  1  0  0  0
 65123  1  0  0  0
  1124  1  0  0  0
M  END
$$$$
