### 
### Created by X-TOOL on Tue Oct 25 01:34:57 2005
### 

@<TRIPOS>MOLECULE
1m0n_ligand
   41    42     1     0     0
SMALL
GAST_HUCK


@<TRIPOS>ATOM
      1 C3         16.1080   52.4800   15.5960 C.ar      1 SUB1        0.134
      2 C2         16.4090   53.0110   14.3860 C.ar      1 SUB1        0.057
      3 N1         17.6200   52.7000   13.6980 N.ar      1 SUB1       -0.308
      4 C6         18.4520   51.8650   14.2100 C.ar      1 SUB1        0.003
      5 C4         17.0520   51.5670   16.2130 C.ar      1 SUB1        0.060
      6 C4A        16.8020   51.0670   17.5960 C.2       1 SUB1        0.018
      7 N2         15.7470   51.3570   18.2990 N.2       1 SUB1       -0.328
      8 C          15.7860   51.1360   19.7400 C.3       1 SUB1        0.073
      9 CA1        16.6950   49.9350   20.1900 C.3       1 SUB1       -0.031
     10 CB1        16.6850   50.1460   21.7080 C.3       1 SUB1       -0.051
     11 CB2        16.5900   51.7520   21.8870 C.3       1 SUB1       -0.051
     12 CA2        16.5530   52.3040   20.4530 C.3       1 SUB1       -0.031
     13 P2         14.0120   51.1120   20.1730 P.3       1 SUB1        0.080
     14 O6         13.5670   51.0160   21.6810 O.co2     1 SUB1       -0.542
     15 O7         13.3670   52.4130   19.5680 O.co2     1 SUB1       -0.542
     16 O8         13.3410   49.8750   19.4790 O.co2     1 SUB1       -0.542
     17 O1         14.8830   52.8570   16.2400 O.3       1 SUB1       -0.322
     18 C2A        15.4410   54.0000   13.7780 C.3       1 SUB1       -0.019
     19 C5         18.1740   51.2710   15.5340 C.ar      1 SUB1        0.019
     20 C5A        19.2010   50.3520   16.0600 C.3       1 SUB1        0.105
     21 O2         19.0770   49.0580   15.6090 O.3       1 SUB1       -0.307
     22 P1         19.8850   48.2040   16.5640 P.3       1 SUB1        0.207
     23 O5         20.1780   48.8760   17.9120 O.co2     1 SUB1       -0.535
     24 O3         19.4080   46.7580   16.6610 O.co2     1 SUB1       -0.535
     25 O4         21.2540   48.2020   15.9010 O.co2     1 SUB1       -0.535
     26 H41        19.3545   51.5974   13.6724 H         1 SUB1        0.066
     27 H61        17.5512   50.4173   18.0460 H         1 SUB1        0.108
     28 H91        17.7102   50.0134   19.7739 H         1 SUB1        0.028
     29 H92        16.2579   48.9652   19.9100 H         1 SUB1        0.028
     30 H101       17.6086   49.7572   22.1617 H         1 SUB1        0.027
     31 H102       15.8154   49.6508   22.1647 H         1 SUB1        0.027
     32 H111       17.4686   52.1346   22.4271 H         1 SUB1        0.027
     33 H112       15.6754   52.0279   22.4323 H         1 SUB1        0.027
     34 H121       16.0003   53.2532   20.3938 H         1 SUB1        0.028
     35 H122       17.5636   52.4418   20.0411 H         1 SUB1        0.028
     36 H171       15.0789   53.2807   17.0674 H         1 SUB1        0.253
     37 H181       15.8245   54.3366   12.8035 H         1 SUB1        0.039
     38 H182       15.3320   54.8656   14.4479 H         1 SUB1        0.039
     39 H183       14.4621   53.5175   13.6400 H         1 SUB1        0.039
     40 H201       19.1289   50.3442   17.1576 H         1 SUB1        0.080
     41 H202       20.1896   50.7297   15.7601 H         1 SUB1        0.080
@<TRIPOS>BOND
     1    1   17 1  
     2    1    5 ar 
     3    1    2 ar 
     4    2   18 1  
     5    2    3 ar 
     6    3    4 ar 
     7    4   19 ar 
     8   19   20 1  
     9   19    5 ar 
    10    5    6 1  
    11    6    7 2  
    12    7    8 1  
    13    8   13 1  
    14    8   12 1  
    15    8    9 1  
    16    9   10 1  
    17   10   11 1  
    18   11   12 1  
    19   13   16 2  
    20   13   15 2  
    21   13   14 2  
    22   20   21 1  
    23   21   22 1  
    24   22   25 2  
    25   22   24 2  
    26   22   23 2  
    27    4   26 1  
    28    6   27 1  
    29    9   28 1  
    30    9   29 1  
    31   10   30 1  
    32   10   31 1  
    33   11   32 1  
    34   11   33 1  
    35   12   34 1  
    36   12   35 1  
    37   17   36 1  
    38   18   37 1  
    39   18   38 1  
    40   18   39 1  
    41   20   40 1  
    42   20   41 1  
@<TRIPOS>SUBSTRUCTURE
     1 SUB1        1 GROUP

