### 
### Created by X-TOOL on Tue Oct 25 00:12:53 2005
### 

@<TRIPOS>MOLECULE
1q1g_ligand
   36    38     1     0     0
SMALL
GAST_HUCK


@<TRIPOS>ATOM
      1 CS         10.0600    1.4930   95.8060 C.3       1 SUB1       -0.018
      2 UNK_2       9.1690    0.7520   94.4400 S.3       1 SUB1       -0.162
      3 UNK_3       8.4420    2.2270   93.6690 C.3       1 SUB1        0.011
      4 UNK_4       8.2100    2.0730   92.1670 C.3       1 SUB1        0.047
      5 UNK_5       7.2450    3.0960   91.7510 N.3       1 SUB1       -0.299
      6 UNK_6       9.3560    3.7780   90.8520 C.3       1 SUB1        0.102
      7 UNK_7       9.7040    3.9350   89.4300 O.3       1 SUB1       -0.386
      8 UNK_8       9.4870    2.2590   91.3320 C.3       1 SUB1        0.100
      9 UNK_9       9.4770    1.3230   90.1740 O.3       1 SUB1       -0.387
     10 UNK_10      7.8870    4.2530   91.1400 C.3       1 SUB1        0.053
     11 C9          7.7120    5.4680   92.1150 C.2       1 SUB1       -0.025
     12 C8          6.4840    5.9820   92.5230 C.2       1 SUB1        0.019
     13 N7          6.5410    7.0010   93.3410 N.pl3     1 SUB1       -0.290
     14 C5          7.8920    7.2270   93.5320 C.2       1 SUB1        0.135
     15 C6          8.5660    8.2330   94.3350 C.2       1 SUB1        0.241
     16 O6          8.0270    9.1020   95.0270 O.2       1 SUB1       -0.401
     17 N1          9.9960    8.1590   94.2860 N.am      1 SUB1       -0.207
     18 C2         10.7160    7.2090   93.5330 C.2       1 SUB1        0.115
     19 N3         10.0740    6.2510   92.7650 N.2       1 SUB1       -0.320
     20 C4          8.6570    6.3040   92.7940 C.2       1 SUB1        0.015
     21 H11        10.5668    0.7057   96.3833 H         1 SUB1        0.034
     22 H12         9.3534    2.0281   96.4575 H         1 SUB1        0.034
     23 H13        10.8069    2.2001   95.4161 H         1 SUB1        0.034
     24 H31         9.1214    3.0766   93.8318 H         1 SUB1        0.039
     25 H32         7.4754    2.4327   94.1520 H         1 SUB1        0.039
     26 H41         7.8010    1.0707   91.9718 H         1 SUB1        0.050
     27 H51         6.6927    3.4246   92.6190 H         1 SUB1        0.124
     28 H61        10.0495    4.3952   91.4420 H         1 SUB1        0.065
     29 H71         9.1200    3.4036   88.9017 H         1 SUB1        0.210
     30 H81        10.3947    2.1029   91.9334 H         1 SUB1        0.064
     31 H91        10.2071    1.5232   89.6001 H         1 SUB1        0.210
     32 H101        7.4031    4.5071   90.1854 H         1 SUB1        0.057
     33 H121        5.5380    5.5630   92.1833 H         1 SUB1        0.078
     34 H131        5.7528    7.5209   93.7525 H         1 SUB1        0.227
     35 H171       10.5172    8.8243   94.8205 H         1 SUB1        0.252
     36 H181       11.8046    7.2287   93.5556 H         1 SUB1        0.143
@<TRIPOS>BOND
     1    2    1 1  
     2    3    2 1  
     3    4    3 1  
     4    4    5 1  
     5    8    4 1  
     6    5   10 1  
     7    6    7 1  
     8    6    8 1  
     9    6   10 1  
    10    8    9 1  
    11   10   11 1  
    12   11   12 2  
    13   11   20 1  
    14   12   13 1  
    15   13   14 1  
    16   14   15 1  
    17   14   20 2  
    18   15   16 2  
    19   15   17 am 
    20   17   18 am 
    21   18   19 2  
    22   19   20 1  
    23    1   21 1  
    24    1   22 1  
    25    1   23 1  
    26    3   24 1  
    27    3   25 1  
    28    4   26 1  
    29    5   27 1  
    30    6   28 1  
    31    7   29 1  
    32    8   30 1  
    33    9   31 1  
    34   10   32 1  
    35   12   33 1  
    36   13   34 1  
    37   17   35 1  
    38   18   36 1  
@<TRIPOS>SUBSTRUCTURE
     1 SUB1        1 GROUP

