### 
### Created by X-TOOL on Mon Oct 24 21:55:18 2005
### 

@<TRIPOS>MOLECULE
1fd0_ligand
   56    59     1     0     0
SMALL
GAST_HUCK


@<TRIPOS>ATOM
      1 C1         34.5290   18.2070   88.4740 C.2       1 SUB1        0.232
      2 C2         35.5050   17.2840   87.8740 C.ar      1 SUB1        0.133
      3 C3         35.5970   15.9690   88.4400 C.ar      1 SUB1       -0.008
      4 C4         36.5130   15.0790   87.8920 C.ar      1 SUB1       -0.032
      5 C5         37.3450   15.4230   86.8080 C.ar      1 SUB1        0.010
      6 C10        37.2450   16.7270   86.2600 C.ar      1 SUB1        0.038
      7 C11        36.3270   17.6400   86.8010 C.ar      1 SUB1        0.032
      8 C15        42.8340   14.1030   82.0500 C.ar      1 SUB1       -0.119
      9 C16        43.2380   13.3710   80.7710 C.3       1 SUB1       -0.108
     10 C17        44.6680   13.7450   80.3470 C.3       1 SUB1       -0.126
     11 C18        44.9870   15.1890   80.4830 C.3       1 SUB1       -0.129
     12 C19        44.8750   15.6980   81.9340 C.3       1 SUB1       -0.115
     13 C20        43.6020   15.1700   82.5710 C.ar      1 SUB1       -0.125
     14 C23        42.2530   13.7000   79.6710 C.3       1 SUB1       -0.122
     15 C24        43.2180   11.8570   81.0480 C.3       1 SUB1       -0.122
     16 C25        44.7610   17.2230   81.7530 C.3       1 SUB1       -0.125
     17 C26        46.0920   15.3970   82.8230 C.3       1 SUB1       -0.125
     18 O1         33.9460   17.8990   89.4960 O.co2     1 SUB1       -0.442
     19 O2         34.3440   19.3010   87.8490 O.co2     1 SUB1       -0.442
     20 C6         38.2610   14.4850   86.2710 C.ar      1 SUB1       -0.026
     21 C7         39.0980   14.7970   85.2080 C.ar      1 SUB1        0.022
     22 C8         38.9400   16.1130   84.7060 C.ar      1 SUB1       -0.033
     23 C9         38.0800   17.0570   85.1760 C.ar      1 SUB1       -0.028
     24 C13        41.3030   14.3980   83.9430 C.ar      1 SUB1        0.031
     25 C14        41.6950   13.7340   82.7510 C.ar      1 SUB1       -0.043
     26 C21        43.1920   15.8040   83.7470 C.ar      1 SUB1       -0.056
     27 C22        42.0870   15.4270   84.4090 C.ar      1 SUB1       -0.028
     28 C12        40.0980   13.8980   84.5460 C.2       1 SUB1        0.131
     29 N1         39.9290   12.5750   84.4770 N.2       1 SUB1       -0.097
     30 O3         38.8160   12.0060   85.0150 O.3       1 SUB1       -0.219
     31 H31        34.9684   15.6771   89.2735 H         1 SUB1        0.079
     32 H41        36.5903   14.0835   88.3140 H         1 SUB1        0.067
     33 H71        36.2542   18.6364   86.3804 H         1 SUB1        0.123
     34 H101       44.8004   13.4607   79.2927 H         1 SUB1        0.004
     35 H102       45.3726   13.1761   80.9715 H         1 SUB1        0.004
     36 H111       44.2888   15.7626   79.8558 H         1 SUB1        0.003
     37 H112       46.0162   15.3549   80.1321 H         1 SUB1        0.003
     38 H141       41.2379   13.4254   79.9937 H         1 SUB1        0.002
     39 H142       42.5146   13.1357   78.7637 H         1 SUB1        0.002
     40 H143       42.2902   14.7781   79.4558 H         1 SUB1        0.002
     41 H151       42.2062   11.5538   81.3549 H         1 SUB1        0.002
     42 H152       43.9309   11.6219   81.8520 H         1 SUB1        0.002
     43 H153       43.5025   11.3134   80.1350 H         1 SUB1        0.002
     44 H161       44.6741   17.7037   82.7386 H         1 SUB1        0.001
     45 H162       43.8696   17.4553   81.1519 H         1 SUB1        0.001
     46 H163       45.6579   17.5994   81.2394 H         1 SUB1        0.001
     47 H171       46.1855   14.3097   82.9607 H         1 SUB1        0.001
     48 H172       45.9595   15.8805   83.8021 H         1 SUB1        0.001
     49 H173       47.0021   15.7852   82.3425 H         1 SUB1        0.001
     50 H201       38.3099   13.4923   86.7037 H         1 SUB1        0.067
     51 H221       39.5648   16.3948   83.8662 H         1 SUB1        0.067
     52 H231       38.0389   18.0420   84.7253 H         1 SUB1        0.078
     53 H251       41.0881   12.9167   82.3785 H         1 SUB1        0.080
     54 H261       43.7840   16.6246   84.1360 H         1 SUB1        0.076
     55 H271       41.8091   15.9402   85.3225 H         1 SUB1        0.075
     56 H301       38.8473   11.0658   84.8834 H         1 SUB1        0.303
@<TRIPOS>BOND
     1    1   19 2  
     2    1   18 2  
     3    1    2 1  
     4    2    7 ar 
     5    2    3 ar 
     6    3    4 ar 
     7    4    5 ar 
     8    5   20 ar 
     9    5    6 ar 
    10    6   23 ar 
    11    6    7 ar 
    12   23   22 ar 
    13   22   21 ar 
    14   21   28 1  
    15   21   20 ar 
    16   28   29 2  
    17   28   24 1  
    18   24   27 ar 
    19   24   25 ar 
    20   25    8 ar 
    21    8   13 ar 
    22    8    9 1  
    23    9   15 1  
    24    9   14 1  
    25    9   10 1  
    26   10   11 1  
    27   11   12 1  
    28   12   17 1  
    29   12   16 1  
    30   12   13 1  
    31   13   26 ar 
    32   26   27 ar 
    33   29   30 1  
    34    3   31 1  
    35    4   32 1  
    36    7   33 1  
    37   10   34 1  
    38   10   35 1  
    39   11   36 1  
    40   11   37 1  
    41   14   38 1  
    42   14   39 1  
    43   14   40 1  
    44   15   41 1  
    45   15   42 1  
    46   15   43 1  
    47   16   44 1  
    48   16   45 1  
    49   16   46 1  
    50   17   47 1  
    51   17   48 1  
    52   17   49 1  
    53   20   50 1  
    54   22   51 1  
    55   23   52 1  
    56   25   53 1  
    57   26   54 1  
    58   27   55 1  
    59   30   56 1  
@<TRIPOS>SUBSTRUCTURE
     1 SUB1        1 GROUP

