1zgi_ligand
  -I-interpret- 

 55 59  0  0  0  0  0  0  0  0999 V2000
   22.3230  -14.2910   25.6190 C   0  0  0  0  0
   22.0110  -14.9860   24.2840 C   0  0  0  0  0
   21.0480  -16.1020   24.5080 N   0  0  0  0  0
   19.7680  -15.6610   25.1350 C   0  0  0  0  0
   20.0600  -15.0240   26.4980 C   0  0  0  0  0
   21.0240  -13.8280   26.3050 C   0  0  0  0  0
   18.7190  -16.8040   25.1620 C   0  0  0  0  0
   19.2670  -18.0340   25.3410 F   0  0  0  0  0
   17.8050  -16.5990   26.1480 F   0  0  0  0  0
   18.0010  -16.8490   23.8070 C   0  0  0  0  0
   17.4150  -15.5460   23.4030 N   0  0  0  0  0
   17.8610  -14.8050   22.2800 C   0  0  0  0  0
   17.0050  -13.8380   21.6540 C   0  0  0  0  0
   17.4730  -13.1050   20.5270 C   0  0  0  0  0
   18.8440  -13.3810   20.0340 C   0  0  0  0  0
   19.7160  -14.3780   20.6870 C   0  0  0  0  0
   19.1710  -15.0470   21.8000 N   0  0  0  0  0
   15.7100  -13.3970   21.8900 N   0  0  0  0  0
   15.4580  -12.4320   20.9190 C   0  0  0  0  0
   16.5440  -12.2110   20.0760 O   0  0  0  0  0
   14.1350  -11.6760   20.7150 C   0  0  0  0  0
   13.0240  -11.7240   21.7700 C   0  0  0  0  0
   12.9160  -10.4860   22.5640 C   0  0  0  0  0
   11.8770  -10.3870   23.5960 C   0  0  0  0  0
   10.9660  -11.5370   23.7640 C   0  0  0  0  0
   11.0880  -12.7730   22.9610 C   0  0  0  0  0
   12.1470  -12.8950   21.9490 C   0  0  0  0  0
   12.3340  -14.1540   21.2840 N   0  0  0  0  0
   12.6160  -15.3380   21.9060 N   0  0  0  0  0
   12.6910  -16.3250   20.9570 C   0  0  0  0  0
   12.4480  -15.7450   19.7450 N   0  0  0  0  0
   12.2270  -14.4050   19.9490 C   0  0  0  0  0
   22.9638  -13.4170   25.4306 H   0  0  0  0  0
   22.8492  -14.9959   26.2794 H   0  0  0  0  0
   22.9411  -15.3870   23.8550 H   0  0  0  0  0
   21.5701  -14.2577   23.5875 H   0  0  0  0  0
   21.5130  -16.8312   25.1549 H   0  0  0  0  0
   19.3461  -14.8691   24.4987 H   0  0  0  0  0
   20.5258  -15.7688   27.1600 H   0  0  0  0  0
   19.1205  -14.6703   26.9477 H   0  0  0  0  0
   20.5356  -13.0660   25.6798 H   0  0  0  0  0
   21.2668  -13.3960   27.2871 H   0  0  0  0  0
   17.1913  -17.5912   23.8666 H   0  0  0  0  0
   18.7257  -17.1577   23.0392 H   0  0  0  0  0
   16.6447  -15.1607   23.9679 H   0  0  0  0  0
   19.2154  -12.8374   19.1728 H   0  0  0  0  0
   20.7187  -14.5833   20.3299 H   0  0  0  0  0
   13.6965  -12.0604   19.7823 H   0  0  0  0  0
   14.3980  -10.6156   20.5868 H   0  0  0  0  0
   13.5952   -9.6598   22.3877 H   0  0  0  0  0
   11.7818   -9.5009   24.2131 H   0  0  0  0  0
   10.1771  -11.4728   24.5047 H   0  0  0  0  0
   10.3946  -13.5911   23.1192 H   0  0  0  0  0
   12.9050  -17.3775   21.1369 H   0  0  0  0  0
   12.0046  -13.6698   19.1770 H   0  0  0  0  0
  1  2  1  0  0  0
  1  6  1  0  0  0
  2  3  1  0  0  0
  3  4  1  0  0  0
  4  5  1  0  0  0
  4  7  1  0  0  0
  5  6  1  0  0  0
  7  8  1  0  0  0
  7  9  1  0  0  0
  7 10  1  0  0  0
 10 11  1  0  0  0
 11 12  1  0  0  0
 12 13  4  0  0  0
 12 17  4  0  0  0
 13 14  4  0  0  0
 13 18  1  0  0  0
 14 15  4  0  0  0
 14 20  1  0  0  0
 15 16  4  0  0  0
 16 17  4  0  0  0
 18 19  2  0  0  0
 19 20  1  0  0  0
 19 21  1  0  0  0
 21 22  1  0  0  0
 22 23  4  0  0  0
 22 27  4  0  0  0
 23 24  4  0  0  0
 24 25  4  0  0  0
 25 26  4  0  0  0
 26 27  4  0  0  0
 27 28  1  0  0  0
 28 29  1  0  0  0
 28 32  1  0  0  0
 29 30  2  0  0  0
 30 31  1  0  0  0
 31 32  2  0  0  0
  1 33  1  0  0  0
  1 34  1  0  0  0
  2 35  1  0  0  0
  2 36  1  0  0  0
  3 37  1  0  0  0
  4 38  1  0  0  0
  5 39  1  0  0  0
  5 40  1  0  0  0
  6 41  1  0  0  0
  6 42  1  0  0  0
 10 43  1  0  0  0
 10 44  1  0  0  0
 11 45  1  0  0  0
 15 46  1  0  0  0
 16 47  1  0  0  0
 21 48  1  0  0  0
 21 49  1  0  0  0
 23 50  1  0  0  0
 24 51  1  0  0  0
 25 52  1  0  0  0
 26 53  1  0  0  0
 30 54  1  0  0  0
 32 55  1  0  0  0
M  END
$$$$
