### 
### Created by X-TOOL on Tue Oct 25 01:41:28 2005
### 

@<TRIPOS>MOLECULE
1zgi_ligand
   55    59     1     0     0
SMALL
GAST_HUCK


@<TRIPOS>ATOM
      1 C1         22.3230  -14.2910   25.6190 C.3       1 SUB1       -0.040
      2 C2         22.0110  -14.9860   24.2840 C.3       1 SUB1       -0.004
      3 N3         21.0480  -16.1020   24.5080 N.3       1 SUB1       -0.308
      4 C4         19.7680  -15.6610   25.1350 C.3       1 SUB1        0.073
      5 C5         20.0600  -15.0240   26.4980 C.3       1 SUB1       -0.032
      6 C6         21.0240  -13.8280   26.3050 C.3       1 SUB1       -0.050
      7 C15        18.7190  -16.8040   25.1620 C.3       1 SUB1        0.283
      8 F17        19.2670  -18.0340   25.3410 F         1 SUB1       -0.202
      9 F18        17.8050  -16.5990   26.1480 F         1 SUB1       -0.202
     10 C19        18.0010  -16.8490   23.8070 C.3       1 SUB1        0.091
     11 N20        17.4150  -15.5460   23.4030 N.pl3     1 SUB1       -0.304
     12 C23        17.8610  -14.8050   22.2800 C.ar      1 SUB1        0.113
     13 C24        17.0050  -13.8380   21.6540 C.ar      1 SUB1        0.085
     14 C25        17.4730  -13.1050   20.5270 C.ar      1 SUB1        0.149
     15 C26        18.8440  -13.3810   20.0340 C.ar      1 SUB1       -0.020
     16 C27        19.7160  -14.3780   20.6870 C.ar      1 SUB1       -0.021
     17 N28        19.1710  -15.0470   21.8000 N.ar      1 SUB1       -0.306
     18 N31        15.7100  -13.3970   21.8900 N.2       1 SUB1       -0.295
     19 C32        15.4580  -12.4320   20.9190 C.2       1 SUB1        0.195
     20 O33        16.5440  -12.2110   20.0760 O.3       1 SUB1       -0.213
     21 C34        14.1350  -11.6760   20.7150 C.3       1 SUB1        0.075
     22 C36        13.0240  -11.7240   21.7700 C.ar      1 SUB1        0.016
     23 C39        12.9160  -10.4860   22.5640 C.ar      1 SUB1       -0.060
     24 C40        11.8770  -10.3870   23.5960 C.ar      1 SUB1       -0.075
     25 C41        10.9660  -11.5370   23.7640 C.ar      1 SUB1       -0.072
     26 C42        11.0880  -12.7730   22.9610 C.ar      1 SUB1       -0.030
     27 C43        12.1470  -12.8950   21.9490 C.ar      1 SUB1        0.123
     28 N48        12.3340  -14.1540   21.2840 N.pl3     1 SUB1       -0.136
     29 N49        12.6160  -15.3380   21.9060 N.2       1 SUB1       -0.179
     30 C50        12.6910  -16.3250   20.9570 C.2       1 SUB1        0.063
     31 N51        12.4480  -15.7450   19.7450 N.2       1 SUB1       -0.285
     32 C52        12.2270  -14.4050   19.9490 C.2       1 SUB1        0.142
     33 H11        22.9638  -13.4170   25.4306 H         1 SUB1        0.028
     34 H12        22.8492  -14.9959   26.2794 H         1 SUB1        0.028
     35 H21        22.9411  -15.3870   23.8550 H         1 SUB1        0.042
     36 H22        21.5701  -14.2577   23.5875 H         1 SUB1        0.042
     37 H31        21.5130  -16.8312   25.1549 H         1 SUB1        0.122
     38 H41        19.3461  -14.8691   24.4987 H         1 SUB1        0.052
     39 H51        20.5258  -15.7688   27.1600 H         1 SUB1        0.028
     40 H52        19.1205  -14.6703   26.9477 H         1 SUB1        0.028
     41 H61        20.5356  -13.0660   25.6798 H         1 SUB1        0.027
     42 H62        21.2668  -13.3960   27.2871 H         1 SUB1        0.027
     43 H101       17.1913  -17.5912   23.8666 H         1 SUB1        0.058
     44 H102       18.7257  -17.1577   23.0392 H         1 SUB1        0.058
     45 H111       16.6447  -15.1607   23.9679 H         1 SUB1        0.181
     46 H151       19.2154  -12.8374   19.1728 H         1 SUB1        0.053
     47 H161       20.7187  -14.5833   20.3299 H         1 SUB1        0.067
     48 H211       13.6965  -12.0604   19.7823 H         1 SUB1        0.069
     49 H212       14.3980  -10.6156   20.5868 H         1 SUB1        0.069
     50 H231       13.5952   -9.6598   22.3877 H         1 SUB1        0.054
     51 H241       11.7818   -9.5009   24.2131 H         1 SUB1        0.054
     52 H251       10.1771  -11.4728   24.5047 H         1 SUB1        0.055
     53 H261       10.3946  -13.5911   23.1192 H         1 SUB1        0.057
     54 H301       12.9050  -17.3775   21.1369 H         1 SUB1        0.087
     55 H321       12.0046  -13.6698   19.1770 H         1 SUB1        0.137
@<TRIPOS>BOND
     1    1    2 1  
     2    1    6 1  
     3    2    3 1  
     4    3    4 1  
     5    4    5 1  
     6    4    7 1  
     7    5    6 1  
     8    7    8 1  
     9    7    9 1  
    10    7   10 1  
    11   10   11 1  
    12   11   12 1  
    13   12   13 ar 
    14   12   17 ar 
    15   13   14 ar 
    16   13   18 1  
    17   14   15 ar 
    18   14   20 1  
    19   15   16 ar 
    20   16   17 ar 
    21   18   19 2  
    22   19   20 1  
    23   19   21 1  
    24   21   22 1  
    25   22   23 ar 
    26   22   27 ar 
    27   23   24 ar 
    28   24   25 ar 
    29   25   26 ar 
    30   26   27 ar 
    31   27   28 1  
    32   28   29 1  
    33   28   32 1  
    34   29   30 2  
    35   30   31 1  
    36   31   32 2  
    37    1   33 1  
    38    1   34 1  
    39    2   35 1  
    40    2   36 1  
    41    3   37 1  
    42    4   38 1  
    43    5   39 1  
    44    5   40 1  
    45    6   41 1  
    46    6   42 1  
    47   10   43 1  
    48   10   44 1  
    49   11   45 1  
    50   15   46 1  
    51   16   47 1  
    52   21   48 1  
    53   21   49 1  
    54   23   50 1  
    55   24   51 1  
    56   25   52 1  
    57   26   53 1  
    58   30   54 1  
    59   32   55 1  
@<TRIPOS>SUBSTRUCTURE
     1 SUB1        1 GROUP

