### 
### Created by X-TOOL on Tue Oct 25 02:14:22 2005
### 

@<TRIPOS>MOLECULE
1dfo_ligand
   53    55     1     0     0
SMALL
GAST_HUCK


@<TRIPOS>ATOM
      1 N1          9.5010   83.8170   43.4520 N.pl3     1 SUB1       -0.217
      2 C2          8.3060   83.4100   43.9140 C.2       1 SUB1        0.223
      3 NA2         7.3000   82.8090   43.3200 N.pl3     1 SUB1       -0.280
      4 N3          8.0880   83.6730   45.2750 N.2       1 SUB1       -0.275
      5 C4          8.9540   84.2940   46.1600 C.2       1 SUB1        0.152
      6 O4          8.6490   84.4850   47.3810 O.2       1 SUB1       -0.426
      7 C4A        10.2470   84.7290   45.5840 C.2       1 SUB1        0.150
      8 N5         11.2940   85.3970   46.3670 N.am      1 SUB1       -0.205
      9 C6         12.6140   85.0350   45.9110 C.3       1 SUB1        0.136
     10 C7         12.6350   85.2700   44.4380 C.2       1 SUB1        0.034
     11 N8         11.7270   84.6200   43.6490 N.2       1 SUB1       -0.283
     12 C8A        10.4630   84.4490   44.2330 C.2       1 SUB1        0.152
     13 C9         12.9370   83.5390   46.0790 C.3       1 SUB1        0.069
     14 N10        12.9570   83.2050   47.5500 N.pl3     1 SUB1       -0.314
     15 C11        12.6670   79.5260   49.3690 C.ar      1 SUB1        0.036
     16 C12        13.5260   80.5350   49.9220 C.ar      1 SUB1       -0.054
     17 C13        13.6150   81.7630   49.3010 C.ar      1 SUB1       -0.038
     18 C14        12.8100   81.9330   48.1090 C.ar      1 SUB1        0.043
     19 C15        11.9780   81.0220   47.5400 C.ar      1 SUB1       -0.038
     20 C16        11.9310   79.7820   48.2210 C.ar      1 SUB1       -0.054
     21 C          12.5360   78.2000   49.9740 C.2       1 SUB1        0.198
     22 O          11.4590   77.6160   49.8510 O.2       1 SUB1       -0.391
     23 N          13.5380   77.6370   50.6340 N.am      1 SUB1       -0.271
     24 CA         13.3870   76.3810   51.4180 C.3       1 SUB1        0.083
     25 CB         13.9720   75.2030   50.5700 C.3       1 SUB1       -0.007
     26 CG         15.3390   75.5610   49.7150 C.3       1 SUB1       -0.009
     27 CD         16.0930   74.5430   48.8030 C.2       1 SUB1        0.028
     28 OE1        15.6430   74.4500   47.6620 O.co2     1 SUB1       -0.567
     29 OE2        17.1210   73.8550   49.2880 O.co2     1 SUB1       -0.567
     30 CT         14.2050   76.4830   52.6590 C.2       1 SUB1        0.053
     31 O1         14.9530   77.4440   52.8430 O.co2     1 SUB1       -0.564
     32 O2         14.1180   75.5750   53.5160 O.co2     1 SUB1       -0.564
     33 C5A        10.9360   86.3940   47.1910 C.2       1 SUB1        0.198
     34 O5B        11.8340   86.9460   47.8690 O.2       1 SUB1       -0.373
     35 H11         9.7175   83.6507   42.4588 H         1 SUB1        0.231
     36 H31         6.4517   82.5745   43.8550 H         1 SUB1        0.191
     37 H32         7.3597   82.5723   42.3193 H         1 SUB1        0.191
     38 H91        13.3680   85.6456   46.4292 H         1 SUB1        0.090
     39 H101       13.3631   85.9495   43.9974 H         1 SUB1        0.112
     40 H131       13.9210   83.3220   45.6378 H         1 SUB1        0.058
     41 H132       12.1677   82.9363   45.5741 H         1 SUB1        0.058
     42 H141       13.0918   83.9890   48.2043 H         1 SUB1        0.178
     43 H161       14.0994   80.3332   50.8196 H         1 SUB1        0.064
     44 H171       14.2500   82.5544   49.6825 H         1 SUB1        0.053
     45 H191       11.4019   81.2264   46.6448 H         1 SUB1        0.053
     46 H201       11.2925   78.9987   47.8288 H         1 SUB1        0.064
     47 H231       14.4360   78.0759   50.6038 H         1 SUB1        0.189
     48 H241       12.3294   76.2021   51.6619 H         1 SUB1        0.078
     49 H251       13.1992   74.8812   49.8564 H         1 SUB1        0.036
     50 H252       14.2065   74.3747   51.2548 H         1 SUB1        0.036
     51 H261       16.0762   75.8965   50.4593 H         1 SUB1        0.049
     52 H262       15.0689   76.4032   49.0609 H         1 SUB1        0.049
     53 H331        9.8977   86.7134   47.2681 H         1 SUB1        0.161
@<TRIPOS>BOND
     1    1    2 1  
     2   12    1 1  
     3    2    3 1  
     4    4    2 2  
     5    5    4 1  
     6    5    6 2  
     7    7    5 1  
     8    8    7 am 
     9    7   12 2  
    10    9    8 1  
    11    8   33 am 
    12    9   10 1  
    13   13    9 1  
    14   10   11 2  
    15   11   12 1  
    16   14   13 1  
    17   18   14 1  
    18   16   15 ar 
    19   15   20 ar 
    20   15   21 1  
    21   17   16 ar 
    22   17   18 ar 
    23   18   19 ar 
    24   19   20 ar 
    25   21   22 2  
    26   21   23 am 
    27   23   24 1  
    28   24   25 1  
    29   24   30 1  
    30   25   26 1  
    31   26   27 1  
    32   27   28 2  
    33   27   29 2  
    34   30   31 2  
    35   30   32 2  
    36   33   34 2  
    37    1   35 1  
    38    3   36 1  
    39    3   37 1  
    40    9   38 1  
    41   10   39 1  
    42   13   40 1  
    43   13   41 1  
    44   14   42 1  
    45   16   43 1  
    46   17   44 1  
    47   19   45 1  
    48   20   46 1  
    49   23   47 1  
    50   24   48 1  
    51   25   49 1  
    52   25   50 1  
    53   26   51 1  
    54   26   52 1  
    55   33   53 1  
@<TRIPOS>SUBSTRUCTURE
     1 SUB1        1 GROUP

