1dfo_ligand
  -I-interpret- 

 53 55  0  0  0  0  0  0  0  0999 V2000
    9.5010   83.8170   43.4520 N   0  0  0  0  0
    8.3060   83.4100   43.9140 C   0  0  0  0  0
    7.3000   82.8090   43.3200 N   0  0  0  0  0
    8.0880   83.6730   45.2750 N   0  0  0  0  0
    8.9540   84.2940   46.1600 C   0  0  0  0  0
    8.6490   84.4850   47.3810 O   0  0  0  0  0
   10.2470   84.7290   45.5840 C   0  0  0  0  0
   11.2940   85.3970   46.3670 N   0  0  0  0  0
   12.6140   85.0350   45.9110 C   0  0  0  0  0
   12.6350   85.2700   44.4380 C   0  0  0  0  0
   11.7270   84.6200   43.6490 N   0  0  0  0  0
   10.4630   84.4490   44.2330 C   0  0  0  0  0
   12.9370   83.5390   46.0790 C   0  0  0  0  0
   12.9570   83.2050   47.5500 N   0  0  0  0  0
   12.6670   79.5260   49.3690 C   0  0  0  0  0
   13.5260   80.5350   49.9220 C   0  0  0  0  0
   13.6150   81.7630   49.3010 C   0  0  0  0  0
   12.8100   81.9330   48.1090 C   0  0  0  0  0
   11.9780   81.0220   47.5400 C   0  0  0  0  0
   11.9310   79.7820   48.2210 C   0  0  0  0  0
   12.5360   78.2000   49.9740 C   0  0  0  0  0
   11.4590   77.6160   49.8510 O   0  0  0  0  0
   13.5380   77.6370   50.6340 N   0  0  0  0  0
   13.3870   76.3810   51.4180 C   0  0  0  0  0
   13.9720   75.2030   50.5700 C   0  0  0  0  0
   15.3390   75.5610   49.7150 C   0  0  0  0  0
   16.0930   74.5430   48.8030 C   0  0  0  0  0
   15.6430   74.4500   47.6620 O   0  0  0  0  0
   17.1210   73.8550   49.2880 O   0  5  0  0  0
   14.2050   76.4830   52.6590 C   0  0  0  0  0
   14.9530   77.4440   52.8430 O   0  0  0  0  0
   14.1180   75.5750   53.5160 O   0  5  0  0  0
   10.9360   86.3940   47.1910 C   0  0  0  0  0
   11.8340   86.9460   47.8690 O   0  0  0  0  0
    9.7175   83.6507   42.4588 H   0  0  0  0  0
    6.4517   82.5745   43.8550 H   0  0  0  0  0
    7.3597   82.5723   42.3193 H   0  0  0  0  0
   13.3680   85.6456   46.4292 H   0  0  0  0  0
   13.3631   85.9495   43.9974 H   0  0  0  0  0
   13.9210   83.3220   45.6378 H   0  0  0  0  0
   12.1677   82.9363   45.5741 H   0  0  0  0  0
   13.0918   83.9890   48.2043 H   0  0  0  0  0
   14.0994   80.3332   50.8196 H   0  0  0  0  0
   14.2500   82.5544   49.6825 H   0  0  0  0  0
   11.4019   81.2264   46.6448 H   0  0  0  0  0
   11.2925   78.9987   47.8288 H   0  0  0  0  0
   14.4360   78.0759   50.6038 H   0  0  0  0  0
   12.3294   76.2021   51.6619 H   0  0  0  0  0
   13.1992   74.8812   49.8564 H   0  0  0  0  0
   14.2065   74.3747   51.2548 H   0  0  0  0  0
   16.0762   75.8965   50.4593 H   0  0  0  0  0
   15.0689   76.4032   49.0609 H   0  0  0  0  0
    9.8977   86.7134   47.2681 H   0  0  0  0  0
  1  2  1  0  0  0
 12  1  1  0  0  0
  2  3  1  0  0  0
  4  2  2  0  0  0
  5  4  1  0  0  0
  5  6  2  0  0  0
  7  5  1  0  0  0
  8  7  1  0  0  0
  7 12  2  0  0  0
  9  8  1  0  0  0
  8 33  1  0  0  0
  9 10  1  0  0  0
 13  9  1  0  0  0
 10 11  2  0  0  0
 11 12  1  0  0  0
 14 13  1  0  0  0
 18 14  1  0  0  0
 16 15  4  0  0  0
 15 20  4  0  0  0
 15 21  1  0  0  0
 17 16  4  0  0  0
 17 18  4  0  0  0
 18 19  4  0  0  0
 19 20  4  0  0  0
 21 22  2  0  0  0
 21 23  1  0  0  0
 23 24  1  0  0  0
 24 25  1  0  0  0
 24 30  1  0  0  0
 25 26  1  0  0  0
 26 27  1  0  0  0
 27 28  2  0  0  0
 27 29  1  0  0  0
 30 31  2  0  0  0
 30 32  1  0  0  0
 33 34  2  0  0  0
  1 35  1  0  0  0
  3 36  1  0  0  0
  3 37  1  0  0  0
  9 38  1  0  0  0
 10 39  1  0  0  0
 13 40  1  0  0  0
 13 41  1  0  0  0
 14 42  1  0  0  0
 16 43  1  0  0  0
 17 44  1  0  0  0
 19 45  1  0  0  0
 20 46  1  0  0  0
 23 47  1  0  0  0
 24 48  1  0  0  0
 25 49  1  0  0  0
 25 50  1  0  0  0
 26 51  1  0  0  0
 26 52  1  0  0  0
 33 53  1  0  0  0
M  END
$$$$
