### 
### Created by X-TOOL on Tue Oct 25 01:59:08 2005
### 

@<TRIPOS>MOLECULE
1ndv_ligand
   41    44     1     0     0
SMALL
GAST_HUCK


@<TRIPOS>ATOM
      1 N1         45.8910   47.9120   17.0220 N.pl3     1 SUB1       -0.233
      2 C2         45.3540   47.5620   18.2420 C.ar      1 SUB1        0.075
      3 C3         46.2410   48.0930   19.2240 C.ar      1 SUB1        0.012
      4 N4         47.2490   48.7360   18.5330 N.2       1 SUB1       -0.315
      5 C5         47.0230   48.5890   17.2490 C.2       1 SUB1        0.202
      6 C6         44.2280   46.8170   18.6340 C.ar      1 SUB1       -0.045
      7 C7         44.0150   46.6370   20.0250 C.ar      1 SUB1       -0.079
      8 C8         44.9070   47.1630   21.0030 C.ar      1 SUB1       -0.081
      9 C9         46.0220   47.8960   20.6040 C.ar      1 SUB1       -0.069
     10 N10        48.0120   48.9800   16.2160 N.3       1 SUB1       -0.204
     11 C11        49.2730   49.6300   16.5560 C.3       1 SUB1        0.070
     12 C12        48.9460   50.9970   17.0030 C.2       1 SUB1        0.032
     13 S15        49.6110   51.8090   18.3630 S.3       1 SUB1       -0.038
     14 C16        48.7250   53.3350   17.9660 C.2       1 SUB1        0.018
     15 C17        47.8580   53.1270   16.8110 C.2       1 SUB1       -0.086
     16 C18        47.9940   51.7910   16.2720 C.2       1 SUB1       -0.078
     17 C19        48.6830   54.5530   18.5670 C.2       1 SUB1        0.002
     18 N20        49.7550   54.4920   19.6080 N.2       1 SUB1       -0.314
     19 C21        50.1180   55.5990   20.3060 C.2       1 SUB1        0.225
     20 S22        48.9360   56.8070   19.8700 S.3       1 SUB1        0.014
     21 C23        48.1940   55.7730   18.7610 C.2       1 SUB1        0.001
     22 N26        50.9400   55.7150   21.3940 N.pl3     1 SUB1       -0.072
     23 C27        51.1020   54.7290   22.3200 C.cat     1 SUB1        0.417
     24 N28        51.1160   53.4800   21.9470 N.pl3     1 SUB1       -0.178
     25 N29        51.2040   54.9610   23.6260 N.pl3     1 SUB1       -0.178
     26 H11        45.4917   47.6915   16.0985 H         1 SUB1        0.231
     27 H61        43.5486   46.3963   17.9015 H         1 SUB1        0.053
     28 H71        43.1448   46.0809   20.3544 H         1 SUB1        0.051
     29 H81        44.7182   46.9930   22.0568 H         1 SUB1        0.051
     30 H91        46.7066   48.3062   21.3375 H         1 SUB1        0.052
     31 H101       48.2829   48.0765   15.6900 H         1 SUB1        0.172
     32 H111       49.7771   49.0882   17.3698 H         1 SUB1        0.068
     33 H112       49.9296   49.6789   15.6749 H         1 SUB1        0.068
     34 H151       47.1900   53.8848   16.4042 H         1 SUB1        0.037
     35 H161       47.4379   51.4270   15.4093 H         1 SUB1        0.030
     36 H211       47.3175   56.1048   18.2065 H         1 SUB1        0.058
     37 H221       51.4633   56.5933   21.5192 H         1 SUB1        0.252
     38 H241       51.2385   52.7347   22.6473 H         1 SUB1        0.195
     39 H242       51.0046   53.2384   20.9520 H         1 SUB1        0.195
     40 H251       51.1986   55.9286   23.9792 H         1 SUB1        0.195
     41 H252       51.2884   54.1731   24.2840 H         1 SUB1        0.195
@<TRIPOS>BOND
     1    1    2 1  
     2    1    5 1  
     3    2    3 ar 
     4    2    6 ar 
     5    3    4 1  
     6    3    9 ar 
     7    4    5 2  
     8    5   10 1  
     9    6    7 ar 
    10    7    8 ar 
    11    8    9 ar 
    12   10   11 1  
    13   11   12 1  
    14   12   13 1  
    15   12   16 2  
    16   13   14 1  
    17   14   15 2  
    18   14   17 1  
    19   15   16 1  
    20   17   18 1  
    21   17   21 2  
    22   18   19 2  
    23   19   20 1  
    24   19   22 1  
    25   20   21 1  
    26   22   23 1  
    27   23   24 1  
    28   23   25 1  
    29    1   26 1  
    30    6   27 1  
    31    7   28 1  
    32    8   29 1  
    33    9   30 1  
    34   10   31 1  
    35   11   32 1  
    36   11   33 1  
    37   15   34 1  
    38   16   35 1  
    39   21   36 1  
    40   22   37 1  
    41   24   38 1  
    42   24   39 1  
    43   25   40 1  
    44   25   41 1  
@<TRIPOS>SUBSTRUCTURE
     1 SUB1        1 GROUP

