### 
### Created by X-TOOL on Mon Oct 24 23:43:45 2005
### 

@<TRIPOS>MOLECULE
1njs_ligand
   62    63     1     0     0
SMALL
GAST_HUCK


@<TRIPOS>ATOM
      1 O4         72.8400   19.0450   38.0060 O.co2     1 SUB1       -0.567
      2 C21        74.1420   19.1610   37.8330 C.2       1 SUB1        0.028
      3 O5         74.9970   18.3170   38.1130 O.co2     1 SUB1       -0.567
      4 C20        74.4610   20.4780   37.2500 C.3       1 SUB1       -0.009
      5 C19        75.9560   20.7030   37.0350 C.3       1 SUB1       -0.007
      6 C17        76.2790   22.0330   36.4470 C.3       1 SUB1        0.083
      7 N          75.5580   22.0070   35.1200 N.am      1 SUB1       -0.270
      8 C          74.6150   22.9670   34.7900 C.2       1 SUB1        0.203
      9 O          74.3110   23.8530   35.5570 O.2       1 SUB1       -0.387
     10 C14        74.0250   22.9100   33.4760 C.ar      1 SUB1        0.043
     11 C13        73.0940   24.0280   33.1320 C.ar      1 SUB1       -0.049
     12 C12        72.5060   24.0940   31.8190 C.ar      1 SUB1       -0.054
     13 C11        72.8640   22.9760   30.8200 C.ar      1 SUB1       -0.030
     14 C16        73.7620   21.8770   31.2140 C.ar      1 SUB1       -0.054
     15 C15        74.3460   21.8270   32.5030 C.ar      1 SUB1       -0.049
     16 C10        72.3640   22.9160   29.2740 C.3       1 SUB1        0.058
     17 C1         73.4310   22.2360   28.3980 C.3       1 SUB1       -0.034
     18 C2         74.4790   23.5450   28.1090 C.3       1 SUB1       -0.049
     19 C3         75.2560   23.5310   26.7410 C.3       1 SUB1       -0.038
     20 C4         76.5150   24.2100   27.1830 C.2       1 SUB1        0.016
     21 C9         76.4070   25.5120   26.8780 C.2       1 SUB1        0.187
     22 O1         75.4060   26.2830   26.2700 O.2       1 SUB1       -0.427
     23 N3         77.5190   26.6430   27.1670 N.am      1 SUB1       -0.188
     24 C8         78.6530   26.2130   27.7690 C.2       1 SUB1        0.236
     25 N2         79.6460   27.0650   28.0610 N.pl3     1 SUB1       -0.280
     26 N1         78.7960   24.9900   28.0380 N.2       1 SUB1       -0.280
     27 C7         77.8090   23.9140   27.8210 C.2       1 SUB1        0.060
     28 N8         78.1340   22.6330   28.2050 N.pl3     1 SUB1       -0.333
     29 C5         70.9590   22.3460   28.8430 C.3       1 SUB1        0.277
     30 OA2        70.4950   22.7470   27.8530 O.3       1 SUB1       -0.356
     31 OA1        70.0730   23.1390   29.9110 O.3       1 SUB1       -0.356
     32 C6         70.5640   20.9330   29.3290 C.3       1 SUB1        0.446
     33 F2         70.6650   20.6050   30.6730 F         1 SUB1       -0.165
     34 F1         71.5150   20.2140   28.7430 F         1 SUB1       -0.165
     35 F          69.3330   20.6340   28.8810 F         1 SUB1       -0.165
     36 C18        77.8240   22.3670   36.2490 C.2       1 SUB1        0.053
     37 O3         78.4540   22.7900   37.2050 O.co2     1 SUB1       -0.564
     38 O2         78.4420   22.1830   35.0300 O.co2     1 SUB1       -0.564
     39 H41        73.9630   20.5636   36.2730 H         1 SUB1        0.049
     40 H42        74.0955   21.2638   37.9274 H         1 SUB1        0.049
     41 H51        76.4689   20.6297   38.0053 H         1 SUB1        0.036
     42 H52        76.3361   19.9304   36.3506 H         1 SUB1        0.036
     43 H61        75.8672   22.8236   37.0914 H         1 SUB1        0.078
     44 H71        75.7659   21.2806   34.4649 H         1 SUB1        0.189
     45 H111       72.8619   24.7877   33.8696 H         1 SUB1        0.065
     46 H121       71.8361   24.9004   31.5433 H         1 SUB1        0.057
     47 H141       73.9805   21.0895   30.5019 H         1 SUB1        0.057
     48 H151       75.0130   21.0176   32.7768 H         1 SUB1        0.065
     49 H161       72.3165   23.9711   28.9669 H         1 SUB1        0.053
     50 H171       73.9482   21.4264   28.9337 H         1 SUB1        0.029
     51 H172       73.0081   21.8531   27.4575 H         1 SUB1        0.029
     52 H181       73.8847   24.4702   28.1343 H         1 SUB1        0.028
     53 H182       75.2332   23.5617   28.9095 H         1 SUB1        0.028
     54 H191       75.4538   22.5100   26.3826 H         1 SUB1        0.031
     55 H192       74.7396   24.1090   25.9606 H         1 SUB1        0.031
     56 H231       77.3800   27.6013   26.9175 H         1 SUB1        0.252
     57 H251       80.5019   26.7208   28.5191 H         1 SUB1        0.190
     58 H252       79.5530   28.0638   27.8272 H         1 SUB1        0.190
     59 H281       79.0435   22.4438   28.6499 H         1 SUB1        0.175
     60 H282       77.4677   21.8635   28.0475 H         1 SUB1        0.175
     61 H301       69.5710   22.5277   27.8260 H         1 SUB1        0.213
     62 H311       70.1861   24.0736   29.7832 H         1 SUB1        0.213
@<TRIPOS>BOND
     1    1    2 2  
     2    2    3 2  
     3    2    4 1  
     4    4    5 1  
     5    5    6 1  
     6    6    7 1  
     7    6   36 1  
     8    7    8 am 
     9    8    9 2  
    10    8   10 1  
    11   10   11 ar 
    12   10   15 ar 
    13   11   12 ar 
    14   12   13 ar 
    15   13   14 ar 
    16   13   16 1  
    17   14   15 ar 
    18   16   17 1  
    19   16   29 1  
    20   17   18 1  
    21   18   19 1  
    22   19   20 1  
    23   20   21 1  
    24   20   27 2  
    25   21   22 2  
    26   21   23 am 
    27   23   24 am 
    28   24   25 1  
    29   24   26 2  
    30   26   27 1  
    31   27   28 1  
    32   29   30 1  
    33   29   31 1  
    34   29   32 1  
    35   32   33 1  
    36   32   34 1  
    37   32   35 1  
    38   36   37 2  
    39   36   38 2  
    40    4   39 1  
    41    4   40 1  
    42    5   41 1  
    43    5   42 1  
    44    6   43 1  
    45    7   44 1  
    46   11   45 1  
    47   12   46 1  
    48   14   47 1  
    49   15   48 1  
    50   16   49 1  
    51   17   50 1  
    52   17   51 1  
    53   18   52 1  
    54   18   53 1  
    55   19   54 1  
    56   19   55 1  
    57   23   56 1  
    58   25   57 1  
    59   25   58 1  
    60   28   59 1  
    61   28   60 1  
    62   30   61 1  
    63   31   62 1  
@<TRIPOS>SUBSTRUCTURE
     1 SUB1        1 GROUP

