1njs_ligand
  -I-interpret- 

 62 63  0  0  0  0  0  0  0  0999 V2000
   72.8400   19.0450   38.0060 O   0  5  0  0  0
   74.1420   19.1610   37.8330 C   0  0  0  0  0
   74.9970   18.3170   38.1130 O   0  0  0  0  0
   74.4610   20.4780   37.2500 C   0  0  0  0  0
   75.9560   20.7030   37.0350 C   0  0  0  0  0
   76.2790   22.0330   36.4470 C   0  0  0  0  0
   75.5580   22.0070   35.1200 N   0  0  0  0  0
   74.6150   22.9670   34.7900 C   0  0  0  0  0
   74.3110   23.8530   35.5570 O   0  0  0  0  0
   74.0250   22.9100   33.4760 C   0  0  0  0  0
   73.0940   24.0280   33.1320 C   0  0  0  0  0
   72.5060   24.0940   31.8190 C   0  0  0  0  0
   72.8640   22.9760   30.8200 C   0  0  0  0  0
   73.7620   21.8770   31.2140 C   0  0  0  0  0
   74.3460   21.8270   32.5030 C   0  0  0  0  0
   72.3640   22.9160   29.2740 C   0  0  0  0  0
   73.4310   22.2360   28.3980 C   0  0  0  0  0
   74.4790   23.5450   28.1090 C   0  0  0  0  0
   75.2560   23.5310   26.7410 C   0  0  0  0  0
   76.5150   24.2100   27.1830 C   0  0  0  0  0
   76.4070   25.5120   26.8780 C   0  0  0  0  0
   75.4060   26.2830   26.2700 O   0  0  0  0  0
   77.5190   26.6430   27.1670 N   0  0  0  0  0
   78.6530   26.2130   27.7690 C   0  0  0  0  0
   79.6460   27.0650   28.0610 N   0  0  0  0  0
   78.7960   24.9900   28.0380 N   0  0  0  0  0
   77.8090   23.9140   27.8210 C   0  0  0  0  0
   78.1340   22.6330   28.2050 N   0  0  0  0  0
   70.9590   22.3460   28.8430 C   0  0  0  0  0
   70.4950   22.7470   27.8530 O   0  0  0  0  0
   70.0730   23.1390   29.9110 O   0  0  0  0  0
   70.5640   20.9330   29.3290 C   0  0  0  0  0
   70.6650   20.6050   30.6730 F   0  0  0  0  0
   71.5150   20.2140   28.7430 F   0  0  0  0  0
   69.3330   20.6340   28.8810 F   0  0  0  0  0
   77.8240   22.3670   36.2490 C   0  0  0  0  0
   78.4540   22.7900   37.2050 O   0  0  0  0  0
   78.4420   22.1830   35.0300 O   0  5  0  0  0
   73.9630   20.5636   36.2730 H   0  0  0  0  0
   74.0955   21.2638   37.9274 H   0  0  0  0  0
   76.4689   20.6297   38.0053 H   0  0  0  0  0
   76.3361   19.9304   36.3506 H   0  0  0  0  0
   75.8672   22.8236   37.0914 H   0  0  0  0  0
   75.7659   21.2806   34.4649 H   0  0  0  0  0
   72.8619   24.7877   33.8696 H   0  0  0  0  0
   71.8361   24.9004   31.5433 H   0  0  0  0  0
   73.9805   21.0895   30.5019 H   0  0  0  0  0
   75.0130   21.0176   32.7768 H   0  0  0  0  0
   72.3165   23.9711   28.9669 H   0  0  0  0  0
   73.9482   21.4264   28.9337 H   0  0  0  0  0
   73.0081   21.8531   27.4575 H   0  0  0  0  0
   73.8847   24.4702   28.1343 H   0  0  0  0  0
   75.2332   23.5617   28.9095 H   0  0  0  0  0
   75.4538   22.5100   26.3826 H   0  0  0  0  0
   74.7396   24.1090   25.9606 H   0  0  0  0  0
   77.3800   27.6013   26.9175 H   0  0  0  0  0
   80.5019   26.7208   28.5191 H   0  0  0  0  0
   79.5530   28.0638   27.8272 H   0  0  0  0  0
   79.0435   22.4438   28.6499 H   0  0  0  0  0
   77.4677   21.8635   28.0475 H   0  0  0  0  0
   69.5710   22.5277   27.8260 H   0  0  0  0  0
   70.1861   24.0736   29.7832 H   0  0  0  0  0
  1  2  1  0  0  0
  2  3  2  0  0  0
  2  4  1  0  0  0
  4  5  1  0  0  0
  5  6  1  0  0  0
  6  7  1  0  0  0
  6 36  1  0  0  0
  7  8  1  0  0  0
  8  9  2  0  0  0
  8 10  1  0  0  0
 10 11  4  0  0  0
 10 15  4  0  0  0
 11 12  4  0  0  0
 12 13  4  0  0  0
 13 14  4  0  0  0
 13 16  1  0  0  0
 14 15  4  0  0  0
 16 17  1  0  0  0
 16 29  1  0  0  0
 17 18  1  0  0  0
 18 19  1  0  0  0
 19 20  1  0  0  0
 20 21  1  0  0  0
 20 27  2  0  0  0
 21 22  2  0  0  0
 21 23  1  0  0  0
 23 24  1  0  0  0
 24 25  1  0  0  0
 24 26  2  0  0  0
 26 27  1  0  0  0
 27 28  1  0  0  0
 29 30  1  0  0  0
 29 31  1  0  0  0
 29 32  1  0  0  0
 32 33  1  0  0  0
 32 34  1  0  0  0
 32 35  1  0  0  0
 36 37  2  0  0  0
 36 38  1  0  0  0
  4 39  1  0  0  0
  4 40  1  0  0  0
  5 41  1  0  0  0
  5 42  1  0  0  0
  6 43  1  0  0  0
  7 44  1  0  0  0
 11 45  1  0  0  0
 12 46  1  0  0  0
 14 47  1  0  0  0
 15 48  1  0  0  0
 16 49  1  0  0  0
 17 50  1  0  0  0
 17 51  1  0  0  0
 18 52  1  0  0  0
 18 53  1  0  0  0
 19 54  1  0  0  0
 19 55  1  0  0  0
 23 56  1  0  0  0
 25 57  1  0  0  0
 25 58  1  0  0  0
 28 59  1  0  0  0
 28 60  1  0  0  0
 30 61  1  0  0  0
 31 62  1  0  0  0
M  END
$$$$
