### 
### Created by X-TOOL on Tue Oct 25 01:42:10 2005
### 

@<TRIPOS>MOLECULE
1jaq_ligand
   43    42     1     0     0
SMALL
GAST_HUCK


@<TRIPOS>ATOM
      1 C1         26.8430   59.7710   53.4900 C.2       1 SUB1        0.221
      2 O1         27.2550   58.6470   53.6670 O.2       1 SUB1       -0.393
      3 C2         27.7710   60.8910   52.9840 C.3       1 SUB1        0.139
      4 C3         28.1990   60.6030   51.5540 C.2       1 SUB1        0.201
      5 O3         27.9860   61.4070   50.6410 O.2       1 SUB1       -0.393
      6 C1'        29.0010   60.9470   53.8590 C.3       1 SUB1       -0.014
      7 C2'        28.9460   61.9840   54.9840 C.3       1 SUB1       -0.042
      8 C3'        29.2660   63.3870   54.4510 C.3       1 SUB1       -0.062
      9 C4'        27.5730   61.9580   55.7150 C.3       1 SUB1       -0.062
     10 N          25.5830   60.0800   53.7210 N.am      1 SUB1       -0.162
     11 O5         24.7190   59.0810   54.1600 O.3       1 SUB1       -0.272
     12 N          28.8560   59.4730   51.3550 N.am      1 SUB1       -0.264
     13 CA         29.3250   59.1540   50.0270 C.3       1 SUB1        0.128
     14 C          28.2420   58.4100   49.2240 C.2       1 SUB1        0.203
     15 O          28.4690   58.0280   48.0740 O.2       1 SUB1       -0.394
     16 CB         30.6140   58.3850   50.1030 C.3       1 SUB1       -0.024
     17 C1         25.9370   56.1170   48.8290 C.2       1 SUB1        0.196
     18 N1         26.3920   55.2060   49.6780 N.am      1 SUB1       -0.299
     19 O1         25.1680   55.8360   47.9080 O.2       1 SUB1       -0.395
     20 C2         25.9430   57.5180   49.3080 C.3       1 SUB1        0.120
     21 N2         27.1300   58.1020   49.9100 N.am      1 SUB1       -0.266
     22 H121       29.0262   58.8464   52.1155 H         1 SUB1        0.188
     23 H131       29.5318   60.0998   49.5049 H         1 SUB1        0.080
     24 H161       31.3849   59.0078   50.5804 H         1 SUB1        0.028
     25 H162       30.9392   58.1131   49.0880 H         1 SUB1        0.028
     26 H31        27.2414   61.8543   53.0240 H         1 SUB1        0.077
     27 H61        29.8646   61.1822   53.2196 H         1 SUB1        0.032
     28 H62        29.1414   59.9558   54.3148 H         1 SUB1        0.032
     29 H71        29.7201   61.7205   55.7198 H         1 SUB1        0.030
     30 H81        29.2200   64.1122   55.2768 H         1 SUB1        0.023
     31 H82        28.5317   63.6626   53.6798 H         1 SUB1        0.023
     32 H83        30.2756   63.3920   54.0145 H         1 SUB1        0.023
     33 H91        27.3734   60.9412   56.0842 H         1 SUB1        0.023
     34 H92        26.7790   62.2562   55.0146 H         1 SUB1        0.023
     35 H93        27.5958   62.6581   56.5631 H         1 SUB1        0.023
     36 H101       25.2539   61.0142   53.5835 H         1 SUB1        0.222
     37 H111       25.0360   58.7291   54.9835 H         1 SUB1        0.249
     38 H163       30.4615   57.4713   50.6962 H         1 SUB1        0.028
     39 H181       26.4134   54.2420   49.4129 H         1 SUB1        0.182
     40 H182       26.7138   55.4829   50.5834 H         1 SUB1        0.182
     41 H201       25.1427   57.5944   50.0588 H         1 SUB1        0.076
     42 H202       25.6926   58.1455   48.4400 H         1 SUB1        0.076
     43 H211       27.1176   58.2851   50.8930 H         1 SUB1        0.188
@<TRIPOS>BOND
     1    1   10 am 
     2    3    1 1  
     3    1    2 2  
     4    3    6 1  
     5    4    3 1  
     6    4    5 2  
     7    6    7 1  
     8    7    9 1  
     9    7    8 1  
    10   10   11 1  
    11   14   13 1  
    12   13   16 1  
    13   13   12 1  
    14   14   15 2  
    15   20   17 1  
    16   17   19 2  
    17   17   18 am 
    18   21   20 1  
    19   12    4 am 
    20   21   14 am 
    21   12   22 1  
    22   13   23 1  
    23   16   24 1  
    24   16   25 1  
    25    3   26 1  
    26    6   27 1  
    27    6   28 1  
    28    7   29 1  
    29    8   30 1  
    30    8   31 1  
    31    8   32 1  
    32    9   33 1  
    33    9   34 1  
    34    9   35 1  
    35   10   36 1  
    36   11   37 1  
    37   16   38 1  
    38   18   39 1  
    39   18   40 1  
    40   20   41 1  
    41   20   42 1  
    42   21   43 1  
@<TRIPOS>SUBSTRUCTURE
     1 SUB1        1 GROUP

