1jaq_ligand
  -I-interpret- 

 43 42  0  0  0  0  0  0  0  0999 V2000
   26.8430   59.7710   53.4900 C   0  0  0  0  0
   27.2550   58.6470   53.6670 O   0  0  0  0  0
   27.7710   60.8910   52.9840 C   0  0  0  0  0
   28.1990   60.6030   51.5540 C   0  0  0  0  0
   27.9860   61.4070   50.6410 O   0  0  0  0  0
   29.0010   60.9470   53.8590 C   0  0  0  0  0
   28.9460   61.9840   54.9840 C   0  0  0  0  0
   29.2660   63.3870   54.4510 C   0  0  0  0  0
   27.5730   61.9580   55.7150 C   0  0  0  0  0
   25.5830   60.0800   53.7210 N   0  0  0  0  0
   24.7190   59.0810   54.1600 O   0  0  0  0  0
   28.8560   59.4730   51.3550 N   0  0  0  0  0
   29.3250   59.1540   50.0270 C   0  0  0  0  0
   28.2420   58.4100   49.2240 C   0  0  0  0  0
   28.4690   58.0280   48.0740 O   0  0  0  0  0
   30.6140   58.3850   50.1030 C   0  0  0  0  0
   25.9370   56.1170   48.8290 C   0  0  0  0  0
   26.3920   55.2060   49.6780 N   0  0  0  0  0
   25.1680   55.8360   47.9080 O   0  0  0  0  0
   25.9430   57.5180   49.3080 C   0  0  0  0  0
   27.1300   58.1020   49.9100 N   0  0  0  0  0
   29.0262   58.8464   52.1155 H   0  0  0  0  0
   29.5318   60.0998   49.5049 H   0  0  0  0  0
   31.3849   59.0078   50.5804 H   0  0  0  0  0
   30.9392   58.1131   49.0880 H   0  0  0  0  0
   27.2414   61.8543   53.0240 H   0  0  0  0  0
   29.8646   61.1822   53.2196 H   0  0  0  0  0
   29.1414   59.9558   54.3148 H   0  0  0  0  0
   29.7201   61.7205   55.7198 H   0  0  0  0  0
   29.2200   64.1122   55.2768 H   0  0  0  0  0
   28.5317   63.6626   53.6798 H   0  0  0  0  0
   30.2756   63.3920   54.0145 H   0  0  0  0  0
   27.3734   60.9412   56.0842 H   0  0  0  0  0
   26.7790   62.2562   55.0146 H   0  0  0  0  0
   27.5958   62.6581   56.5631 H   0  0  0  0  0
   25.2539   61.0142   53.5835 H   0  0  0  0  0
   25.0360   58.7291   54.9835 H   0  0  0  0  0
   30.4615   57.4713   50.6962 H   0  0  0  0  0
   26.4134   54.2420   49.4129 H   0  0  0  0  0
   26.7138   55.4829   50.5834 H   0  0  0  0  0
   25.1427   57.5944   50.0588 H   0  0  0  0  0
   25.6926   58.1455   48.4400 H   0  0  0  0  0
   27.1176   58.2851   50.8930 H   0  0  0  0  0
  1 10  1  0  0  0
  3  1  1  0  0  0
  1  2  2  0  0  0
  3  6  1  0  0  0
  4  3  1  0  0  0
  4  5  2  0  0  0
  6  7  1  0  0  0
  7  9  1  0  0  0
  7  8  1  0  0  0
 10 11  1  0  0  0
 14 13  1  0  0  0
 13 16  1  0  0  0
 13 12  1  0  0  0
 14 15  2  0  0  0
 20 17  1  0  0  0
 17 19  2  0  0  0
 17 18  1  0  0  0
 21 20  1  0  0  0
 12  4  1  0  0  0
 21 14  1  0  0  0
 12 22  1  0  0  0
 13 23  1  0  0  0
 16 24  1  0  0  0
 16 25  1  0  0  0
  3 26  1  0  0  0
  6 27  1  0  0  0
  6 28  1  0  0  0
  7 29  1  0  0  0
  8 30  1  0  0  0
  8 31  1  0  0  0
  8 32  1  0  0  0
  9 33  1  0  0  0
  9 34  1  0  0  0
  9 35  1  0  0  0
 10 36  1  0  0  0
 11 37  1  0  0  0
 16 38  1  0  0  0
 18 39  1  0  0  0
 18 40  1  0  0  0
 20 41  1  0  0  0
 20 42  1  0  0  0
 21 43  1  0  0  0
M  END
$$$$
