### 
### Created by X-TOOL on Tue Oct 25 00:57:35 2005
### 

@<TRIPOS>MOLECULE
1hp0_ligand
   33    35     1     0     0
SMALL
GAST_HUCK


@<TRIPOS>ATOM
      1 O5'        15.6700   23.5980   10.0340 O.3       1 SUB1       -0.392
      2 C5'        16.2980   24.8650    9.8470 C.3       1 SUB1        0.073
      3 C4'        15.4040   26.0780   10.2040 C.3       1 SUB1        0.113
      4 O4'        15.2460   25.8080   11.6320 O.3       1 SUB1       -0.337
      5 C3'        16.5030   27.1360   10.0180 C.3       1 SUB1        0.115
      6 O3'        15.9340   28.1520    9.1910 O.3       1 SUB1       -0.386
      7 C2'        16.9130   27.5680   11.4550 C.3       1 SUB1        0.138
      8 O2'        16.8170   28.9510   11.8080 O.3       1 SUB1       -0.384
      9 C1'        16.0220   26.7420   12.3880 C.3       1 SUB1        0.199
     10 N9         16.6310   26.2200   13.6550 N.pl3     1 SUB1       -0.205
     11 C8         17.2020   26.9880   14.7000 C.2       1 SUB1        0.109
     12 N7         17.6920   26.2980   15.7120 N.2       1 SUB1       -0.302
     13 C5         17.4420   24.9680   15.3340 C.ar      1 SUB1        0.081
     14 C6         17.7230   23.6890   15.9660 C.ar      1 SUB1        0.111
     15 N6         18.3310   23.5710   17.1430 N.pl3     1 SUB1       -0.323
     16 N1         17.3320   22.5450   15.2950 N.ar      1 SUB1       -0.306
     17 C2         16.7060   22.6260   14.0880 C.ar      1 SUB1       -0.022
     18 C3         16.3840   23.7440   13.3880 C.ar      1 SUB1       -0.029
     19 C4         16.7870   24.9050   14.0730 C.ar      1 SUB1        0.095
     20 H11        15.4200   23.5012   10.9454 H         1 SUB1        0.209
     21 H21        16.5906   24.9519    8.7902 H         1 SUB1        0.058
     22 H22        17.1966   24.9010   10.4805 H         1 SUB1        0.058
     23 H31        14.4733   26.2349    9.6390 H         1 SUB1        0.065
     24 H51        17.3800   26.7109    9.5080 H         1 SUB1        0.065
     25 H61        15.7210   27.7846    8.3412 H         1 SUB1        0.210
     26 H71        17.9637   27.2770   11.6008 H         1 SUB1        0.068
     27 H81        17.3695   29.4634   11.2295 H         1 SUB1        0.210
     28 H91        15.2833   27.4689   12.7566 H         1 SUB1        0.099
     29 H111       17.2342   28.0761   14.6697 H         1 SUB1        0.134
     30 H151       18.5037   22.6373   17.5421 H         1 SUB1        0.177
     31 H152       18.6291   24.4133   17.6554 H         1 SUB1        0.177
     32 H171       16.4313   21.6825   13.6303 H         1 SUB1        0.068
     33 H181       15.8821   23.7423   12.4272 H         1 SUB1        0.052
@<TRIPOS>BOND
     1    1    2 1  
     2    2    3 1  
     3    3    5 1  
     4    3    4 1  
     5    4    9 1  
     6    9   10 1  
     7    9    7 1  
     8    7    8 1  
     9    7    5 1  
    10    5    6 1  
    11   10   19 1  
    12   10   11 1  
    13   11   12 2  
    14   12   13 1  
    15   13   19 ar 
    16   13   14 ar 
    17   14   16 ar 
    18   14   15 1  
    19   16   17 ar 
    20   17   18 ar 
    21   18   19 ar 
    22    1   20 1  
    23    2   21 1  
    24    2   22 1  
    25    3   23 1  
    26    5   24 1  
    27    6   25 1  
    28    7   26 1  
    29    8   27 1  
    30    9   28 1  
    31   11   29 1  
    32   15   30 1  
    33   15   31 1  
    34   17   32 1  
    35   18   33 1  
@<TRIPOS>SUBSTRUCTURE
     1 SUB1        1 GROUP

