1hp0_ligand
  -I-interpret- 

 33 35  0  0  0  0  0  0  0  0999 V2000
   15.6700   23.5980   10.0340 O   0  0  0  0  0
   16.2980   24.8650    9.8470 C   0  0  0  0  0
   15.4040   26.0780   10.2040 C   0  0  0  0  0
   15.2460   25.8080   11.6320 O   0  0  0  0  0
   16.5030   27.1360   10.0180 C   0  0  0  0  0
   15.9340   28.1520    9.1910 O   0  0  0  0  0
   16.9130   27.5680   11.4550 C   0  0  0  0  0
   16.8170   28.9510   11.8080 O   0  0  0  0  0
   16.0220   26.7420   12.3880 C   0  0  0  0  0
   16.6310   26.2200   13.6550 N   0  0  0  0  0
   17.2020   26.9880   14.7000 C   0  0  0  0  0
   17.6920   26.2980   15.7120 N   0  0  0  0  0
   17.4420   24.9680   15.3340 C   0  0  0  0  0
   17.7230   23.6890   15.9660 C   0  0  0  0  0
   18.3310   23.5710   17.1430 N   0  0  0  0  0
   17.3320   22.5450   15.2950 N   0  0  0  0  0
   16.7060   22.6260   14.0880 C   0  0  0  0  0
   16.3840   23.7440   13.3880 C   0  0  0  0  0
   16.7870   24.9050   14.0730 C   0  0  0  0  0
   15.4200   23.5012   10.9454 H   0  0  0  0  0
   16.5906   24.9519    8.7902 H   0  0  0  0  0
   17.1966   24.9010   10.4805 H   0  0  0  0  0
   14.4733   26.2349    9.6390 H   0  0  0  0  0
   17.3800   26.7109    9.5080 H   0  0  0  0  0
   15.7210   27.7846    8.3412 H   0  0  0  0  0
   17.9637   27.2770   11.6008 H   0  0  0  0  0
   17.3695   29.4634   11.2295 H   0  0  0  0  0
   15.2833   27.4689   12.7566 H   0  0  0  0  0
   17.2342   28.0761   14.6697 H   0  0  0  0  0
   18.5037   22.6373   17.5421 H   0  0  0  0  0
   18.6291   24.4133   17.6554 H   0  0  0  0  0
   16.4313   21.6825   13.6303 H   0  0  0  0  0
   15.8821   23.7423   12.4272 H   0  0  0  0  0
  1  2  1  0  0  0
  2  3  1  0  0  0
  3  5  1  0  0  0
  3  4  1  0  0  0
  4  9  1  0  0  0
  9 10  1  0  0  0
  9  7  1  0  0  0
  7  8  1  0  0  0
  7  5  1  0  0  0
  5  6  1  0  0  0
 10 19  1  0  0  0
 10 11  1  0  0  0
 11 12  2  0  0  0
 12 13  1  0  0  0
 13 19  4  0  0  0
 13 14  4  0  0  0
 14 16  4  0  0  0
 14 15  1  0  0  0
 16 17  4  0  0  0
 17 18  4  0  0  0
 18 19  4  0  0  0
  1 20  1  0  0  0
  2 21  1  0  0  0
  2 22  1  0  0  0
  3 23  1  0  0  0
  5 24  1  0  0  0
  6 25  1  0  0  0
  7 26  1  0  0  0
  8 27  1  0  0  0
  9 28  1  0  0  0
 11 29  1  0  0  0
 15 30  1  0  0  0
 15 31  1  0  0  0
 17 32  1  0  0  0
 18 33  1  0  0  0
M  END
$$$$
