1c5o_ligand
  -I-interpret- 

 18 18  0  0  0  0  0  0  0  0999 V2000
   11.8529  -13.8653   22.8786 H   0  0  0  0  0
   13.4913  -13.8262   21.0487 H   0  0  0  0  0
   14.4251  -11.6913   20.2435 H   0  0  0  0  0
   13.7150   -9.5822   21.2776 H   0  0  0  0  0
   12.0783   -9.6095   23.1077 H   0  0  0  0  0
    9.6379  -12.8918   25.2862 H   0  0  0  0  0
   10.5441  -13.7185   23.9908 H   0  0  0  0  0
   11.0943   -9.7555   24.6223 H   0  0  0  0  0
    9.9510  -10.6607   25.6501 H   0  0  0  0  0
   11.8270  -11.7370   23.1510 C   0  0  0  0  0
   12.2520  -12.9160   22.5400 C   0  0  0  0  0
   13.1770  -12.8950   21.5060 C   0  0  0  0  0
   13.7030  -11.6970   21.0520 C   0  0  0  0  0
   13.3090  -10.5250   21.6260 C   0  0  0  0  0
   12.3830  -10.5490   22.6610 C   0  0  0  0  0
   10.9010  -11.7410   24.2070 C   0  3  0  0  0
   10.3210  -12.8610   24.5160 N   0  0  0  0  0
   10.6290  -10.6390   24.8750 N   0  0  0  0  0
 11  1  1  0  0  0
 12  2  1  0  0  0
 13  3  1  0  0  0
 14  4  1  0  0  0
 15  5  1  0  0  0
 17  6  1  0  0  0
 17  7  1  0  0  0
 18  8  1  0  0  0
 18  9  1  0  0  0
 16 10  1  0  0  0
 10 15  4  0  0  0
 10 11  4  0  0  0
 11 12  4  0  0  0
 12 13  4  0  0  0
 14 13  4  0  0  0
 15 14  4  0  0  0
 16 18  1  0  0  0
 16 17  1  0  0  0
M  END
$$$$
