### 
### Created by X-TOOL on Mon Oct 24 23:07:08 2005
### 

@<TRIPOS>MOLECULE
1c5o_ligand
   18    18     1     0     0
SMALL
GAST_HUCK


@<TRIPOS>ATOM
      1 H111       11.8529  -13.8653   22.8786 H         1 SUB1        0.066
      2 H121       13.4913  -13.8262   21.0487 H         1 SUB1        0.062
      3 H131       14.4251  -11.6913   20.2435 H         1 SUB1        0.062
      4 H141       13.7150   -9.5822   21.2776 H         1 SUB1        0.062
      5 H151       12.0783   -9.6095   23.1077 H         1 SUB1        0.066
      6 H171        9.6379  -12.8918   25.2862 H         1 SUB1        0.192
      7 H172       10.5441  -13.7185   23.9908 H         1 SUB1        0.192
      8 H181       11.0943   -9.7555   24.6223 H         1 SUB1        0.192
      9 H182        9.9510  -10.6607   25.6501 H         1 SUB1        0.192
     10 C1         11.8270  -11.7370   23.1510 C.ar      1 SUB1        0.186
     11 C2         12.2520  -12.9160   22.5400 C.ar      1 SUB1       -0.007
     12 C3         13.1770  -12.8950   21.5060 C.ar      1 SUB1       -0.057
     13 C4         13.7030  -11.6970   21.0520 C.ar      1 SUB1       -0.062
     14 C5         13.3090  -10.5250   21.6260 C.ar      1 SUB1       -0.057
     15 C6         12.3830  -10.5490   22.6610 C.ar      1 SUB1       -0.007
     16 C          10.9010  -11.7410   24.2070 C.cat     1 SUB1        0.316
     17 N1         10.3210  -12.8610   24.5160 N.pl3     1 SUB1       -0.200
     18 N2         10.6290  -10.6390   24.8750 N.pl3     1 SUB1       -0.200
@<TRIPOS>BOND
     1   11    1 1  
     2   12    2 1  
     3   13    3 1  
     4   14    4 1  
     5   15    5 1  
     6   17    6 1  
     7   17    7 1  
     8   18    8 1  
     9   18    9 1  
    10   16   10 1  
    11   10   15 ar 
    12   10   11 ar 
    13   11   12 ar 
    14   12   13 ar 
    15   14   13 ar 
    16   15   14 ar 
    17   16   18 1  
    18   16   17 1  
@<TRIPOS>SUBSTRUCTURE
     1 SUB1        1 GROUP

