1zp8_ligand
  -I-interpret- 

 88 92  0  0  0  0  0  0  0  0999 V2000
   -6.6180   16.2430   18.1490 C   0  0  0  0  0
   -7.7260   16.9060   18.7550 O   0  0  0  0  0
   -7.9860   16.7020   20.0790 C   0  0  0  0  0
   -9.2780   16.8930   20.5620 C   0  0  0  0  0
   -9.5410   16.6050   21.9120 C   0  0  0  0  0
   -8.4990   16.2180   22.7200 C   0  0  0  0  0
   -7.1900   16.0850   22.2570 C   0  0  0  0  0
   -6.9320   16.3130   20.8980 C   0  0  0  0  0
   -8.8060   15.9020   24.4310 S   0  0  0  0  0
  -10.0130   15.1570   24.3620 O   0  0  0  0  0
   -7.7790   15.0050   24.8740 O   0  0  0  0  0
   -8.7070   17.4230   25.2580 N   0  0  0  0  0
   -7.5030   18.0780   25.7230 C   0  0  0  0  0
   -6.6320   17.5130   26.8540 C   0  0  0  0  0
   -5.6470   16.4090   26.4390 C   0  0  0  0  0
   -6.1870   18.4910   27.9380 C   0  0  0  0  0
   -9.9590   17.9730   25.7980 C   0  0  0  0  0
  -10.1640   17.8750   27.3440 C   0  0  0  0  0
  -11.1500   18.7720   27.7640 O   0  0  0  0  0
  -10.4920   16.3910   27.7450 C   0  0  0  0  0
  -12.0240   16.0510   27.6220 C   0  0  0  0  0
  -12.2110   14.5490   27.8500 C   0  0  0  0  0
  -12.0220   13.6720   26.7810 C   0  0  0  0  0
  -12.1380   12.3100   27.0340 C   0  0  0  0  0
  -12.5320   11.9070   28.3000 C   0  0  0  0  0
  -12.7670   12.7660   29.3630 C   0  0  0  0  0
  -12.5960   14.1330   29.1130 C   0  0  0  0  0
   -9.8940   16.0960   29.0470 N   0  0  0  0  0
  -10.3870   16.2980   30.3090 C   0  0  0  0  0
   -9.4170   15.8800   31.1970 C   0  0  0  0  0
   -9.5350   15.8770   32.6900 C   0  0  0  0  0
  -10.8310   15.3830   33.0040 O   0  0  0  0  0
  -11.3870   15.3690   34.2310 C   0  0  0  0  0
  -11.4670   16.4040   34.8580 O   0  0  0  0  0
  -11.8160   14.1650   34.6740 N   0  0  0  0  0
  -13.0490   13.4420   34.2430 C   0  0  0  0  0
  -13.4450   13.6400   32.7520 C   0  0  0  0  0
  -14.3200   14.7160   32.4260 O   0  0  0  0  0
  -13.8900   12.2510   32.3170 C   0  0  0  0  0
  -13.1720   11.2740   33.2550 C   0  0  0  0  0
  -12.9540    9.9030   33.1560 C   0  0  0  0  0
  -12.2610    9.2240   34.1640 C   0  0  0  0  0
  -11.7830    9.9360   35.2520 C   0  0  0  0  0
  -11.9580   11.3030   35.3210 C   0  0  0  0  0
  -12.6890   11.9760   34.3520 C   0  0  0  0  0
   -8.3910   15.3640   30.4700 N   0  0  0  0  0
   -8.6660   15.5490   29.2180 N   0  0  0  0  0
   -5.6985   16.5394   18.6538 H   0  0  0  0  0
   -6.7500   15.1645   18.2354 H   0  0  0  0  0
   -6.5617   16.5203   17.0964 H   0  0  0  0  0
  -10.0687   17.2582   19.9067 H   0  0  0  0  0
  -10.5522   16.6870   22.3106 H   0  0  0  0  0
   -6.3844   15.8095   22.9376 H   0  0  0  0  0
   -5.9279   16.1881   20.4927 H   0  0  0  0  0
   -7.8732   19.0156   26.1377 H   0  0  0  0  0
   -6.8445   18.0348   24.8555 H   0  0  0  0  0
   -7.3521   16.9406   27.4387 H   0  0  0  0  0
   -6.2009   15.5664   26.0253 H   0  0  0  0  0
   -4.9616   16.7994   25.6868 H   0  0  0  0  0
   -5.0822   16.0809   27.3116 H   0  0  0  0  0
   -5.6000   19.2903   27.4857 H   0  0  0  0  0
   -7.0648   18.9146   28.4260 H   0  0  0  0  0
   -5.5795   17.9641   28.6738 H   0  0  0  0  0
  -10.7608   17.3843   25.3523 H   0  0  0  0  0
   -9.9424   19.0378   25.5656 H   0  0  0  0  0
   -9.2429   18.1568   27.8542 H   0  0  0  0  0
  -11.2634   18.6992   28.7145 H   0  0  0  0  0
  -10.0330   15.7118   27.0266 H   0  0  0  0  0
  -12.3862   16.3237   26.6308 H   0  0  0  0  0
  -12.5895   16.6124   28.3657 H   0  0  0  0  0
  -11.7914   14.0422   25.7821 H   0  0  0  0  0
  -11.9243   11.5772   26.2559 H   0  0  0  0  0
  -12.6667   10.8392   28.4725 H   0  0  0  0  0
  -13.0693   12.3960   30.3427 H   0  0  0  0  0
  -12.7644   14.8626   29.9051 H   0  0  0  0  0
  -11.3628   16.7115   30.5640 H   0  0  0  0  0
   -9.3982   16.8819   33.0896 H   0  0  0  0  0
   -8.7643   15.2486   33.1364 H   0  0  0  0  0
  -11.2369   13.7032   35.3753 H   0  0  0  0  0
  -13.8752   13.8065   34.8535 H   0  0  0  0  0
  -12.5976   14.0100   32.1749 H   0  0  0  0  0
  -14.4797   14.7216   31.4794 H   0  0  0  0  0
  -13.6366   12.0604   31.2741 H   0  0  0  0  0
  -14.9726   12.1416   32.3814 H   0  0  0  0  0
  -13.3248    9.3558   32.2893 H   0  0  0  0  0
  -12.0992    8.1483   34.0942 H   0  0  0  0  0
  -11.2663    9.4139   36.0573 H   0  0  0  0  0
  -11.5167   11.8612   36.1467 H   0  0  0  0  0
  1  2  1  0  0  0
  2  3  1  0  0  0
  3  4  4  0  0  0
  3  8  4  0  0  0
  4  5  4  0  0  0
  5  6  4  0  0  0
  6  7  4  0  0  0
  6  9  1  0  0  0
  7  8  4  0  0  0
  9 10  2  0  0  0
  9 11  2  0  0  0
  9 12  1  0  0  0
 12 13  1  0  0  0
 12 17  1  0  0  0
 13 14  1  0  0  0
 14 15  1  0  0  0
 14 16  1  0  0  0
 17 18  1  0  0  0
 18 19  1  0  0  0
 18 20  1  0  0  0
 20 21  1  0  0  0
 20 28  1  0  0  0
 21 22  1  0  0  0
 22 23  4  0  0  0
 22 27  4  0  0  0
 23 24  4  0  0  0
 24 25  4  0  0  0
 25 26  4  0  0  0
 26 27  4  0  0  0
 28 29  1  0  0  0
 28 47  1  0  0  0
 29 30  2  0  0  0
 30 31  1  0  0  0
 30 46  1  0  0  0
 31 32  1  0  0  0
 32 33  1  0  0  0
 33 34  2  0  0  0
 33 35  1  0  0  0
 35 36  1  0  0  0
 36 37  1  0  0  0
 36 45  1  0  0  0
 37 38  1  0  0  0
 37 39  1  0  0  0
 39 40  1  0  0  0
 40 41  4  0  0  0
 40 45  4  0  0  0
 41 42  4  0  0  0
 42 43  4  0  0  0
 43 44  4  0  0  0
 44 45  4  0  0  0
 46 47  2  0  0  0
  1 48  1  0  0  0
  1 49  1  0  0  0
  1 50  1  0  0  0
  4 51  1  0  0  0
  5 52  1  0  0  0
  7 53  1  0  0  0
  8 54  1  0  0  0
 13 55  1  0  0  0
 13 56  1  0  0  0
 14 57  1  0  0  0
 15 58  1  0  0  0
 15 59  1  0  0  0
 15 60  1  0  0  0
 16 61  1  0  0  0
 16 62  1  0  0  0
 16 63  1  0  0  0
 17 64  1  0  0  0
 17 65  1  0  0  0
 18 66  1  0  0  0
 19 67  1  0  0  0
 20 68  1  0  0  0
 21 69  1  0  0  0
 21 70  1  0  0  0
 23 71  1  0  0  0
 24 72  1  0  0  0
 25 73  1  0  0  0
 26 74  1  0  0  0
 27 75  1  0  0  0
 29 76  1  0  0  0
 31 77  1  0  0  0
 31 78  1  0  0  0
 35 79  1  0  0  0
 36 80  1  0  0  0
 37 81  1  0  0  0
 38 82  1  0  0  0
 39 83  1  0  0  0
 39 84  1  0  0  0
 41 85  1  0  0  0
 42 86  1  0  0  0
 43 87  1  0  0  0
 44 88  1  0  0  0
M  END
$$$$
