### 
### Created by X-TOOL on Sun Jun  3 11:16:12 2007
### 

@<TRIPOS>MOLECULE
1zp8_ligand
   88    92     1     0     0
SMALL
GAST_HUCK


@<TRIPOS>ATOM
      1 C1         -6.6180   16.2430   18.1490 C.3       1 SUB1        0.059
      2 O1         -7.7260   16.9060   18.7550 O.3       1 SUB1       -0.321
      3 C2         -7.9860   16.7020   20.0790 C.ar      1 SUB1        0.091
      4 C3         -9.2780   16.8930   20.5620 C.ar      1 SUB1       -0.031
      5 C4         -9.5410   16.6050   21.9120 C.ar      1 SUB1       -0.044
      6 C5         -8.4990   16.2180   22.7200 C.ar      1 SUB1        0.097
      7 C6         -7.1900   16.0850   22.2570 C.ar      1 SUB1       -0.044
      8 C7         -6.9320   16.3130   20.8980 C.ar      1 SUB1       -0.031
      9 S1         -8.8060   15.9020   24.4310 S.o2      1 SUB1        0.066
     10 O2        -10.0130   15.1570   24.3620 O.2       1 SUB1       -0.152
     11 O3         -7.7790   15.0050   24.8740 O.2       1 SUB1       -0.152
     12 N1         -8.7070   17.4230   25.2580 N.am      1 SUB1       -0.232
     13 C8         -7.5030   18.0780   25.7230 C.3       1 SUB1        0.032
     14 C9         -6.6320   17.5130   26.8540 C.3       1 SUB1       -0.030
     15 C10        -5.6470   16.4090   26.4390 C.3       1 SUB1       -0.061
     16 C11        -6.1870   18.4910   27.9380 C.3       1 SUB1       -0.061
     17 C12        -9.9590   17.9730   25.7980 C.3       1 SUB1        0.059
     18 C13       -10.1640   17.8750   27.3440 C.3       1 SUB1        0.107
     19 O4        -11.1500   18.7720   27.7640 O.3       1 SUB1       -0.387
     20 C14       -10.4920   16.3910   27.7450 C.3       1 SUB1        0.123
     21 C15       -12.0240   16.0510   27.6220 C.3       1 SUB1        0.017
     22 C16       -12.2110   14.5490   27.8500 C.ar      1 SUB1       -0.040
     23 C17       -12.0220   13.6720   26.7810 C.ar      1 SUB1       -0.060
     24 C18       -12.1380   12.3100   27.0340 C.ar      1 SUB1       -0.069
     25 C19       -12.5320   11.9070   28.3000 C.ar      1 SUB1       -0.069
     26 C20       -12.7670   12.7660   29.3630 C.ar      1 SUB1       -0.069
     27 C21       -12.5960   14.1330   29.1130 C.ar      1 SUB1       -0.060
     28 N2         -9.8940   16.0960   29.0470 N.pl3     1 SUB1       -0.174
     29 C22       -10.3870   16.2980   30.3090 C.2       1 SUB1        0.072
     30 C23        -9.4170   15.8800   31.1970 C.2       1 SUB1        0.067
     31 C24        -9.5350   15.8770   32.6900 C.3       1 SUB1        0.112
     32 O5        -10.8310   15.3830   33.0040 O.3       1 SUB1       -0.255
     33 C25       -11.3870   15.3690   34.2310 C.2       1 SUB1        0.323
     34 O6        -11.4670   16.4040   34.8580 O.2       1 SUB1       -0.377
     35 N3        -11.8160   14.1650   34.6740 N.am      1 SUB1       -0.247
     36 C26       -13.0490   13.4420   34.2430 C.3       1 SUB1        0.103
     37 C27       -13.4450   13.6400   32.7520 C.3       1 SUB1        0.095
     38 O7        -14.3200   14.7160   32.4260 O.3       1 SUB1       -0.386
     39 C28       -13.8900   12.2510   32.3170 C.3       1 SUB1        0.009
     40 C29       -13.1720   11.2740   33.2550 C.ar      1 SUB1       -0.036
     41 C30       -12.9540    9.9030   33.1560 C.ar      1 SUB1       -0.067
     42 C31       -12.2610    9.2240   34.1640 C.ar      1 SUB1       -0.075
     43 C32       -11.7830    9.9360   35.2520 C.ar      1 SUB1       -0.075
     44 C33       -11.9580   11.3030   35.3210 C.ar      1 SUB1       -0.065
     45 C34       -12.6890   11.9760   34.3520 C.ar      1 SUB1       -0.013
     46 N4         -8.3910   15.3640   30.4700 N.2       1 SUB1       -0.224
     47 N5         -8.6660   15.5490   29.2180 N.2       1 SUB1       -0.101
     48 H          -5.6985   16.5394   18.6538 H         1 SUB1        0.058
     49 H          -6.7500   15.1645   18.2354 H         1 SUB1        0.058
     50 H          -6.5617   16.5203   17.0964 H         1 SUB1        0.058
     51 H         -10.0687   17.2582   19.9067 H         1 SUB1        0.054
     52 H         -10.5522   16.6870   22.3106 H         1 SUB1        0.061
     53 H          -6.3844   15.8095   22.9376 H         1 SUB1        0.061
     54 H          -5.9279   16.1881   20.4927 H         1 SUB1        0.054
     55 H          -7.8732   19.0156   26.1377 H         1 SUB1        0.048
     56 H          -6.8445   18.0348   24.8555 H         1 SUB1        0.048
     57 H          -7.3521   16.9406   27.4387 H         1 SUB1        0.031
     58 H          -6.2009   15.5664   26.0253 H         1 SUB1        0.023
     59 H          -4.9616   16.7994   25.6868 H         1 SUB1        0.023
     60 H          -5.0822   16.0809   27.3116 H         1 SUB1        0.023
     61 H          -5.6000   19.2903   27.4857 H         1 SUB1        0.023
     62 H          -7.0648   18.9146   28.4260 H         1 SUB1        0.023
     63 H          -5.5795   17.9641   28.6738 H         1 SUB1        0.023
     64 H         -10.7608   17.3843   25.3523 H         1 SUB1        0.051
     65 H          -9.9424   19.0378   25.5656 H         1 SUB1        0.051
     66 H          -9.2429   18.1568   27.8542 H         1 SUB1        0.064
     67 H         -11.2634   18.6992   28.7145 H         1 SUB1        0.210
     68 H         -10.0330   15.7118   27.0266 H         1 SUB1        0.073
     69 H         -12.3862   16.3237   26.6308 H         1 SUB1        0.046
     70 H         -12.5895   16.6124   28.3657 H         1 SUB1        0.046
     71 H         -11.7914   14.0422   25.7821 H         1 SUB1        0.056
     72 H         -11.9243   11.5772   26.2559 H         1 SUB1        0.060
     73 H         -12.6667   10.8392   28.4725 H         1 SUB1        0.056
     74 H         -13.0693   12.3960   30.3427 H         1 SUB1        0.060
     75 H         -12.7644   14.8626   29.9051 H         1 SUB1        0.056
     76 H         -11.3628   16.7115   30.5640 H         1 SUB1        0.090
     77 H          -9.3982   16.8819   33.0896 H         1 SUB1        0.073
     78 H          -8.7643   15.2486   33.1364 H         1 SUB1        0.073
     79 H         -11.2369   13.7032   35.3753 H         1 SUB1        0.190
     80 H         -13.8752   13.8065   34.8535 H         1 SUB1        0.073
     81 H         -12.5976   14.0100   32.1749 H         1 SUB1        0.066
     82 H         -14.4797   14.7216   31.4794 H         1 SUB1        0.210
     83 H         -13.6366   12.0604   31.2741 H         1 SUB1        0.044
     84 H         -14.9726   12.1416   32.3814 H         1 SUB1        0.044
     85 H         -13.3248    9.3558   32.2893 H         1 SUB1        0.054
     86 H         -12.0992    8.1483   34.0942 H         1 SUB1        0.054
     87 H         -11.2663    9.4139   36.0573 H         1 SUB1        0.054
     88 H         -11.5167   11.8612   36.1467 H         1 SUB1        0.054
@<TRIPOS>BOND
     1    1    2 1  
     2    2    3 1  
     3    3    4 ar 
     4    3    8 ar 
     5    4    5 ar 
     6    5    6 ar 
     7    6    7 ar 
     8    6    9 1  
     9    7    8 ar 
    10    9   10 2  
    11    9   11 2  
    12    9   12 1  
    13   12   13 1  
    14   12   17 1  
    15   13   14 1  
    16   14   15 1  
    17   14   16 1  
    18   17   18 1  
    19   18   19 1  
    20   18   20 1  
    21   20   21 1  
    22   20   28 1  
    23   21   22 1  
    24   22   23 ar 
    25   22   27 ar 
    26   23   24 ar 
    27   24   25 ar 
    28   25   26 ar 
    29   26   27 ar 
    30   28   29 1  
    31   28   47 1  
    32   29   30 2  
    33   30   31 1  
    34   30   46 1  
    35   31   32 1  
    36   32   33 1  
    37   33   34 2  
    38   33   35 am 
    39   35   36 1  
    40   36   37 1  
    41   36   45 1  
    42   37   38 1  
    43   37   39 1  
    44   39   40 1  
    45   40   41 ar 
    46   40   45 ar 
    47   41   42 ar 
    48   42   43 ar 
    49   43   44 ar 
    50   44   45 ar 
    51   46   47 2  
    52    1   48 1  
    53    1   49 1  
    54    1   50 1  
    55    4   51 1  
    56    5   52 1  
    57    7   53 1  
    58    8   54 1  
    59   13   55 1  
    60   13   56 1  
    61   14   57 1  
    62   15   58 1  
    63   15   59 1  
    64   15   60 1  
    65   16   61 1  
    66   16   62 1  
    67   16   63 1  
    68   17   64 1  
    69   17   65 1  
    70   18   66 1  
    71   19   67 1  
    72   20   68 1  
    73   21   69 1  
    74   21   70 1  
    75   23   71 1  
    76   24   72 1  
    77   25   73 1  
    78   26   74 1  
    79   27   75 1  
    80   29   76 1  
    81   31   77 1  
    82   31   78 1  
    83   35   79 1  
    84   36   80 1  
    85   37   81 1  
    86   38   82 1  
    87   39   83 1  
    88   39   84 1  
    89   41   85 1  
    90   42   86 1  
    91   43   87 1  
    92   44   88 1  
@<TRIPOS>SUBSTRUCTURE
     1 SUB1        1 GROUP

