### 
### Created by X-TOOL on Mon Oct 24 23:08:01 2005
### 

@<TRIPOS>MOLECULE
1g98_ligand
   23    22     1     0     0
SMALL
GAST_HUCK


@<TRIPOS>ATOM
      1 O1A        13.8520    9.7460   28.4480 O.co2     1 SUB1       -0.564
      2 C1         14.8530   10.4270   28.9870 C.2       1 SUB1        0.059
      3 O1         15.2550   11.4550   28.4560 O.co2     1 SUB1       -0.564
      4 C2         15.2620    9.6400   30.2750 C.3       1 SUB1        0.123
      5 O2         14.5510    8.4270   30.6060 O.3       1 SUB1       -0.374
      6 C3         16.7350    9.2390   29.9410 C.3       1 SUB1        0.120
      7 O3         16.7520    8.3060   28.8820 O.3       1 SUB1       -0.383
      8 C4         17.3870    8.4810   31.1480 C.3       1 SUB1        0.114
      9 O4         17.3890    9.4260   32.2260 O.3       1 SUB1       -0.386
     10 C5         18.8390    8.1100   30.7400 C.3       1 SUB1        0.094
     11 O5         19.4830    9.4260   30.4310 O.3       1 SUB1       -0.320
     12 P          21.0060    9.1200   29.9410 P.3       1 SUB1        0.205
     13 O1P        21.7690    8.3250   31.0230 O.co2     1 SUB1       -0.535
     14 O2P        20.9980    8.2320   28.7070 O.co2     1 SUB1       -0.535
     15 O3P        21.6260   10.4930   29.6350 O.co2     1 SUB1       -0.535
     16 H41        15.2114   10.3142   31.1427 H         1 SUB1        0.084
     17 H51        14.5756    7.8343   29.8639 H         1 SUB1        0.215
     18 H61        17.3158   10.1369   29.6834 H         1 SUB1        0.068
     19 H71        16.2505    7.5382   29.1298 H         1 SUB1        0.210
     20 H81        16.8186    7.5781   31.4157 H         1 SUB1        0.065
     21 H91        17.8428   10.2148   31.9533 H         1 SUB1        0.210
     22 H101       18.8405    7.4578   29.8542 H         1 SUB1        0.064
     23 H102       19.3598    7.6059   31.5675 H         1 SUB1        0.064
@<TRIPOS>BOND
     1    1    2 2  
     2    2    4 1  
     3    2    3 2  
     4    4    6 1  
     5    4    5 1  
     6    6    8 1  
     7    6    7 1  
     8    8   10 1  
     9    8    9 1  
    10   10   11 1  
    11   11   12 1  
    12   12   15 2  
    13   12   14 2  
    14   12   13 2  
    15    4   16 1  
    16    5   17 1  
    17    6   18 1  
    18    7   19 1  
    19    8   20 1  
    20    9   21 1  
    21   10   22 1  
    22   10   23 1  
@<TRIPOS>SUBSTRUCTURE
     1 SUB1        1 GROUP

