1g2o_ligand
  -I-interpret- 

 34 36  0  0  0  0  0  0  0  0999 V2000
   54.4180   13.5251   43.3100 H   0  0  0  0  0
   54.3914   15.2765   44.8359 H   0  0  0  0  0
   54.5022   15.8399   43.1338 H   0  0  0  0  0
   56.8224   15.3612   45.0435 H   0  0  0  0  0
   56.7593   15.1616   42.4286 H   0  0  0  0  0
   58.0754   15.5771   43.3256 H   0  0  0  0  0
   55.1200   17.5505   44.9417 H   0  0  0  0  0
   57.0614   18.5590   45.8405 H   0  0  0  0  0
   55.5107   18.3643   42.8566 H   0  0  0  0  0
   58.0656   18.9302   44.0013 H   0  0  0  0  0
   58.2409   17.4386   42.1920 H   0  0  0  0  0
   57.4559   15.0548   40.3580 H   0  0  0  0  0
   55.9283   15.1054   38.3447 H   0  0  0  0  0
   52.6628   18.9336   38.3254 H   0  0  0  0  0
   53.1819   20.0847   40.3610 H   0  0  0  0  0
   55.2480   13.9450   43.5030 O   0  0  0  0  0
   55.0140   15.2780   43.9290 C   0  0  0  0  0
   56.3320   15.9040   44.2220 C   0  0  0  0  0
   57.1430   15.8500   43.0570 N   0  3  0  0  0
   56.1460   17.3380   44.6070 C   0  0  0  0  0
   57.0730   17.6270   45.6570 O   0  0  0  0  0
   56.4520   18.0500   43.3310 C   0  0  0  0  0
   57.2500   19.1990   43.5950 O   0  0  0  0  0
   57.2120   17.0970   42.3780 C   0  0  0  0  0
   56.4490   16.8610   41.0640 C   0  0  0  0  0
   56.6880   15.8060   40.1790 C   0  0  0  0  0
   55.9180   15.7880   39.1160 N   0  0  0  0  0
   55.0820   16.8970   39.2600 C   0  0  0  0  0
   54.0310   17.3800   38.3940 C   0  0  0  0  0
   53.6630   16.8910   37.3270 O   0  0  0  0  0
   53.4000   18.5420   38.8760 N   0  0  0  0  0
   53.7340   19.1900   40.0770 C   0  0  0  0  0
   54.7270   18.7390   40.9030 N   0  0  0  0  0
   55.3770   17.5810   40.4460 C   0  0  0  0  0
 16  1  1  0  0  0
 17  2  1  0  0  0
 17  3  1  0  0  0
 18  4  1  0  0  0
 19  5  1  0  0  0
 19  6  1  0  0  0
 20  7  1  0  0  0
 21  8  1  0  0  0
 22  9  1  0  0  0
 23 10  1  0  0  0
 24 11  1  0  0  0
 26 12  1  0  0  0
 17 16  1  0  0  0
 18 17  1  0  0  0
 20 18  1  0  0  0
 19 18  1  0  0  0
 24 19  1  0  0  0
 25 24  1  0  0  0
 24 22  1  0  0  0
 22 23  1  0  0  0
 22 20  1  0  0  0
 20 21  1  0  0  0
 25 34  1  0  0  0
 25 26  2  0  0  0
 26 27  1  0  0  0
 27 28  1  0  0  0
 28 34  2  0  0  0
 28 29  1  0  0  0
 29 31  1  0  0  0
 29 30  2  0  0  0
 31 32  1  0  0  0
 32 33  2  0  0  0
 33 34  1  0  0  0
 27 13  1  0  0  0
 31 14  1  0  0  0
 32 15  1  0  0  0
M  END
$$$$
