### 
### Created by X-TOOL on Mon Oct 24 22:36:09 2005
### 

@<TRIPOS>MOLECULE
1g2o_ligand
   34    36     1     0     0
SMALL
GAST_HUCK


@<TRIPOS>ATOM
      1 H161       54.4180   13.5251   43.3100 H         1 SUB1        0.210
      2 H171       54.3914   15.2765   44.8359 H         1 SUB1        0.061
      3 H172       54.5022   15.8399   43.1338 H         1 SUB1        0.061
      4 H181       56.8224   15.3612   45.0435 H         1 SUB1        0.090
      5 H191       56.7593   15.1616   42.4286 H         1 SUB1        0.203
      6 H192       58.0754   15.5771   43.3256 H         1 SUB1        0.203
      7 H201       55.1200   17.5505   44.9417 H         1 SUB1        0.068
      8 H211       57.0614   18.5590   45.8405 H         1 SUB1        0.210
      9 H221       55.5107   18.3643   42.8566 H         1 SUB1        0.069
     10 H231       58.0656   18.9302   44.0013 H         1 SUB1        0.210
     11 H241       58.2409   17.4386   42.1920 H         1 SUB1        0.096
     12 H261       57.4559   15.0548   40.3580 H         1 SUB1        0.078
     13 H271       55.9283   15.1054   38.3447 H         1 SUB1        0.227
     14 H311       52.6628   18.9336   38.3254 H         1 SUB1        0.252
     15 H321       53.1819   20.0847   40.3610 H         1 SUB1        0.143
     16 O5'        55.2480   13.9450   43.5030 O.3       1 SUB1       -0.389
     17 C5'        55.0140   15.2780   43.9290 C.3       1 SUB1        0.089
     18 C4'        56.3320   15.9040   44.2220 C.3       1 SUB1        0.031
     19 N4'        57.1430   15.8500   43.0570 N.4       1 SUB1        0.243
     20 C3'        56.1460   17.3380   44.6070 C.3       1 SUB1        0.132
     21 O3'        57.0730   17.6270   45.6570 O.3       1 SUB1       -0.383
     22 C2'        56.4520   18.0500   43.3310 C.3       1 SUB1        0.133
     23 O2'        57.2500   19.1990   43.5950 O.3       1 SUB1       -0.382
     24 C1'        57.2120   17.0970   42.3780 C.3       1 SUB1        0.024
     25 C9         56.4490   16.8610   41.0640 C.2       1 SUB1        0.006
     26 C8         56.6880   15.8060   40.1790 C.2       1 SUB1        0.022
     27 N7         55.9180   15.7880   39.1160 N.pl3     1 SUB1       -0.289
     28 C5         55.0820   16.8970   39.2600 C.2       1 SUB1        0.135
     29 C6         54.0310   17.3800   38.3940 C.2       1 SUB1        0.241
     30 O6         53.6630   16.8910   37.3270 O.2       1 SUB1       -0.401
     31 N1         53.4000   18.5420   38.8760 N.am      1 SUB1       -0.207
     32 C2         53.7340   19.1900   40.0770 C.2       1 SUB1        0.115
     33 N3         54.7270   18.7390   40.9030 N.2       1 SUB1       -0.320
     34 C4         55.3770   17.5810   40.4460 C.2       1 SUB1        0.018
@<TRIPOS>BOND
     1   16    1 1  
     2   17    2 1  
     3   17    3 1  
     4   18    4 1  
     5   19    5 1  
     6   19    6 1  
     7   20    7 1  
     8   21    8 1  
     9   22    9 1  
    10   23   10 1  
    11   24   11 1  
    12   26   12 1  
    13   17   16 1  
    14   18   17 1  
    15   20   18 1  
    16   19   18 1  
    17   24   19 1  
    18   25   24 1  
    19   24   22 1  
    20   22   23 1  
    21   22   20 1  
    22   20   21 1  
    23   25   34 1  
    24   25   26 2  
    25   26   27 1  
    26   27   28 1  
    27   28   34 2  
    28   28   29 1  
    29   29   31 am 
    30   29   30 2  
    31   31   32 am 
    32   32   33 2  
    33   33   34 1  
    34   27   13 1  
    35   31   14 1  
    36   32   15 1  
@<TRIPOS>SUBSTRUCTURE
     1 SUB1        1 GROUP

