2i0a_ligand
  -I-interpret- 

 84 87  0  0  0  0  0  0  0  0999 V2000
   20.8850   22.5110    4.6420 O   0  0  0  0  0
   20.4790   23.6320    4.9430 C   0  0  0  0  0
   19.8080   24.5120    3.9400 C   0  0  0  0  0
   20.6710   24.1630    6.3340 C   0  0  0  0  0
   20.1340   25.3970    6.6980 C   0  0  0  0  0
   20.3150   25.9010    7.9720 C   0  0  0  0  0
   21.4030   23.4380    7.2640 C   0  0  0  0  0
   21.5950   23.9420    8.5470 C   0  0  0  0  0
   21.0330   25.1700    8.9220 C   0  0  0  0  0
   21.2330   25.7270   10.1970 N   0  0  0  0  0
   21.5610   25.0660   11.2880 C   0  0  0  0  0
   21.6440   23.8610   11.4630 O   0  0  0  0  0
   21.8790   26.0090   12.3310 O   0  0  0  0  0
   21.2010   27.1640   10.3950 C   0  0  0  0  0
   21.9140   27.3160   11.7480 C   0  0  0  0  0
   21.1500   28.3670   12.4960 C   0  0  0  0  0
   21.2200   29.5310   12.1150 O   0  0  0  0  0
   20.4170   27.9480   13.5300 N   0  0  0  0  0
   19.5000   28.8090   14.2840 C   0  0  0  0  0
   18.1890   28.0010   14.2300 C   0  0  0  0  0
   17.8880   27.6200   12.7850 C   0  0  0  0  0
   17.5020   28.5870   11.8650 C   0  0  0  0  0
   17.2600   28.2310   10.5390 C   0  0  0  0  0
   17.3820   26.9140   10.1210 C   0  0  0  0  0
   17.7720   25.9410   11.0340 C   0  0  0  0  0
   18.0180   26.2920   12.3560 C   0  0  0  0  0
   19.9750   29.1550   15.6950 C   0  0  0  0  0
   19.9060   28.0150   16.5600 O   0  0  0  0  0
   19.1370   30.2990   16.2850 C   0  0  0  0  0
   19.3880   31.5470   15.5200 N   0  0  0  0  0
   20.1700   32.5410   16.2880 C   0  0  0  0  0
   21.6620   32.1890   16.2950 C   0  0  0  0  0
   22.4280   33.1840   17.1590 C   0  0  0  0  0
   22.2640   32.1250   14.8890 C   0  0  0  0  0
   18.0720   32.2190   14.8140 S   0  0  0  0  0
   17.2770   31.1770   14.2510 O   0  0  0  0  0
   18.6210   33.0520   13.7690 O   0  0  0  0  0
   17.1930   33.1010   15.8520 C   0  0  0  0  0
   16.2110   32.5170   16.6620 C   0  0  0  0  0
   15.4760   33.2890   17.5760 C   0  0  0  0  0
   15.7060   34.6590   17.6890 C   0  0  0  0  0
   14.9750   35.4000   18.5900 O   0  0  0  0  0
   15.2940   36.7590   18.9010 C   0  0  0  0  0
   16.6790   35.2490   16.8710 C   0  0  0  0  0
   17.4090   34.4720   15.9660 C   0  0  0  0  0
   20.4923   24.7072    3.1143 H   0  0  0  0  0
   18.9141   24.0152    3.5630 H   0  0  0  0  0
   19.5296   25.4536    4.4132 H   0  0  0  0  0
   19.5639   25.9718    5.9682 H   0  0  0  0  0
   19.8963   26.8720    8.2366 H   0  0  0  0  0
   21.8281   22.4726    6.9892 H   0  0  0  0  0
   22.1876   23.3768    9.2664 H   0  0  0  0  0
   20.1928   27.5782   10.3894 H   0  0  0  0  0
   21.6795   27.7215    9.5898 H   0  0  0  0  0
   22.9544   27.6401   11.7211 H   0  0  0  0  0
   20.4996   26.9713   13.8123 H   0  0  0  0  0
   19.4036   29.8091   13.8614 H   0  0  0  0  0
   17.3724   28.6056   14.6246 H   0  0  0  0  0
   18.2935   27.0973   14.8304 H   0  0  0  0  0
   17.3884   29.6243   12.1801 H   0  0  0  0  0
   16.9709   28.9982    9.8207 H   0  0  0  0  0
   17.1739   26.6444    9.0856 H   0  0  0  0  0
   17.8846   24.9052   10.7138 H   0  0  0  0  0
   18.3163   25.5237   13.0693 H   0  0  0  0  0
   21.0147   29.4737   15.6206 H   0  0  0  0  0
   20.2095   28.2612   17.4369 H   0  0  0  0  0
   19.4156   30.4513   17.3277 H   0  0  0  0  0
   18.0794   30.0426   16.2224 H   0  0  0  0  0
   19.8096   32.5469   17.3167 H   0  0  0  0  0
   20.0456   33.5176   15.8201 H   0  0  0  0  0
   21.7542   31.1890   16.7188 H   0  0  0  0  0
   22.2977   34.1885   16.7564 H   0  0  0  0  0
   22.0454   33.1475   18.1790 H   0  0  0  0  0
   23.4868   32.9250   17.1573 H   0  0  0  0  0
   21.7447   31.3635   14.3071 H   0  0  0  0  0
   22.1526   33.0943   14.4030 H   0  0  0  0  0
   23.3219   31.8718   14.9593 H   0  0  0  0  0
   16.0145   31.4479   16.5817 H   0  0  0  0  0
   14.7204   32.8136   18.2014 H   0  0  0  0  0
   16.3028   36.8095   19.3107 H   0  0  0  0  0
   15.2384   37.3607   17.9938 H   0  0  0  0  0
   14.5831   37.1390   19.6347 H   0  0  0  0  0
   16.8680   36.3202   16.9406 H   0  0  0  0  0
   18.1615   34.9486   15.3378 H   0  0  0  0  0
  1  2  2  0  0  0
  2  3  1  0  0  0
  2  4  1  0  0  0
  4  5  4  0  0  0
  4  7  4  0  0  0
  5  6  4  0  0  0
  6  9  4  0  0  0
  7  8  4  0  0  0
  8  9  4  0  0  0
  9 10  1  0  0  0
 10 11  1  0  0  0
 10 14  1  0  0  0
 11 12  2  0  0  0
 11 13  1  0  0  0
 13 15  1  0  0  0
 14 15  1  0  0  0
 15 16  1  0  0  0
 16 17  2  0  0  0
 16 18  1  0  0  0
 18 19  1  0  0  0
 19 20  1  0  0  0
 19 27  1  0  0  0
 20 21  1  0  0  0
 21 22  4  0  0  0
 21 26  4  0  0  0
 22 23  4  0  0  0
 23 24  4  0  0  0
 24 25  4  0  0  0
 25 26  4  0  0  0
 27 28  1  0  0  0
 27 29  1  0  0  0
 29 30  1  0  0  0
 30 31  1  0  0  0
 30 35  1  0  0  0
 31 32  1  0  0  0
 32 33  1  0  0  0
 32 34  1  0  0  0
 35 36  2  0  0  0
 35 37  2  0  0  0
 35 38  1  0  0  0
 38 39  4  0  0  0
 38 45  4  0  0  0
 39 40  4  0  0  0
 40 41  4  0  0  0
 41 42  1  0  0  0
 41 44  4  0  0  0
 42 43  1  0  0  0
 44 45  4  0  0  0
  3 46  1  0  0  0
  3 47  1  0  0  0
  3 48  1  0  0  0
  5 49  1  0  0  0
  6 50  1  0  0  0
  7 51  1  0  0  0
  8 52  1  0  0  0
 14 53  1  0  0  0
 14 54  1  0  0  0
 15 55  1  0  0  0
 18 56  1  0  0  0
 19 57  1  0  0  0
 20 58  1  0  0  0
 20 59  1  0  0  0
 22 60  1  0  0  0
 23 61  1  0  0  0
 24 62  1  0  0  0
 25 63  1  0  0  0
 26 64  1  0  0  0
 27 65  1  0  0  0
 28 66  1  0  0  0
 29 67  1  0  0  0
 29 68  1  0  0  0
 31 69  1  0  0  0
 31 70  1  0  0  0
 32 71  1  0  0  0
 33 72  1  0  0  0
 33 73  1  0  0  0
 33 74  1  0  0  0
 34 75  1  0  0  0
 34 76  1  0  0  0
 34 77  1  0  0  0
 39 78  1  0  0  0
 40 79  1  0  0  0
 43 80  1  0  0  0
 43 81  1  0  0  0
 43 82  1  0  0  0
 44 83  1  0  0  0
 45 84  1  0  0  0
M  END
$$$$
