### 
### Created by X-TOOL on Sun Jun  3 12:44:44 2007
### 

@<TRIPOS>MOLECULE
2i0a_ligand
   84    87     1     0     0
SMALL
GAST_HUCK


@<TRIPOS>ATOM
      1 O45        20.8850   22.5110    4.6420 O.2       1 SUB1       -0.387
      2 C46        20.4790   23.6320    4.9430 C.2       1 SUB1        0.118
      3 C47        19.8080   24.5120    3.9400 C.3       1 SUB1        0.008
      4 C40        20.6710   24.1630    6.3340 C.ar      1 SUB1        0.016
      5 C41        20.1340   25.3970    6.6980 C.ar      1 SUB1       -0.056
      6 C42        20.3150   25.9010    7.9720 C.ar      1 SUB1       -0.034
      7 C45        21.4030   23.4380    7.2640 C.ar      1 SUB1       -0.056
      8 C44        21.5950   23.9420    8.5470 C.ar      1 SUB1       -0.034
      9 C43        21.0330   25.1700    8.9220 C.ar      1 SUB1        0.077
     10 N24        21.2330   25.7270   10.1970 N.am      1 SUB1       -0.186
     11 C26        21.5610   25.0660   11.2880 C.2       1 SUB1        0.358
     12 O27        21.6440   23.8610   11.4630 O.2       1 SUB1       -0.366
     13 O28        21.8790   26.0090   12.3310 O.3       1 SUB1       -0.231
     14 C25        21.2010   27.1640   10.3950 C.3       1 SUB1        0.107
     15 C29        21.9140   27.3160   11.7480 C.3       1 SUB1        0.202
     16 C21        21.1500   28.3670   12.4960 C.2       1 SUB1        0.213
     17 O22        21.2200   29.5310   12.1150 O.2       1 SUB1       -0.394
     18 N20        20.4170   27.9480   13.5300 N.am      1 SUB1       -0.277
     19 C19        19.5000   28.8090   14.2840 C.3       1 SUB1        0.079
     20 C32        18.1890   28.0010   14.2300 C.3       1 SUB1        0.006
     21 C38        17.8880   27.6200   12.7850 C.ar      1 SUB1       -0.041
     22 C37        17.5020   28.5870   11.8650 C.ar      1 SUB1       -0.060
     23 C36        17.2600   28.2310   10.5390 C.ar      1 SUB1       -0.069
     24 C35        17.3820   26.9140   10.1210 C.ar      1 SUB1       -0.069
     25 C34        17.7720   25.9410   11.0340 C.ar      1 SUB1       -0.069
     26 C33        18.0180   26.2920   12.3560 C.ar      1 SUB1       -0.060
     27 C17        19.9750   29.1550   15.6950 C.3       1 SUB1        0.097
     28 O18        19.9060   28.0150   16.5600 O.3       1 SUB1       -0.388
     29 C16        19.1370   30.2990   16.2850 C.3       1 SUB1        0.058
     30 N11        19.3880   31.5470   15.5200 N.am      1 SUB1       -0.233
     31 C12        20.1700   32.5410   16.2880 C.3       1 SUB1        0.032
     32 C13        21.6620   32.1890   16.2950 C.3       1 SUB1       -0.030
     33 C15        22.4280   33.1840   17.1590 C.3       1 SUB1       -0.061
     34 C14        22.2640   32.1250   14.8890 C.3       1 SUB1       -0.061
     35 S8         18.0720   32.2190   14.8140 S.o2      1 SUB1        0.066
     36 O10        17.2770   31.1770   14.2510 O.2       1 SUB1       -0.152
     37 O9         18.6210   33.0520   13.7690 O.2       1 SUB1       -0.152
     38 C5         17.1930   33.1010   15.8520 C.ar      1 SUB1        0.097
     39 C6         16.2110   32.5170   16.6620 C.ar      1 SUB1       -0.044
     40 C7         15.4760   33.2890   17.5760 C.ar      1 SUB1       -0.031
     41 C2         15.7060   34.6590   17.6890 C.ar      1 SUB1        0.091
     42 O19        14.9750   35.4000   18.5900 O.3       1 SUB1       -0.321
     43 C18        15.2940   36.7590   18.9010 C.3       1 SUB1        0.059
     44 C3         16.6790   35.2490   16.8710 C.ar      1 SUB1       -0.031
     45 C4         17.4090   34.4720   15.9660 C.ar      1 SUB1       -0.044
     46 H          20.4923   24.7072    3.1143 H         1 SUB1        0.045
     47 H          18.9141   24.0152    3.5630 H         1 SUB1        0.045
     48 H          19.5296   25.4536    4.4132 H         1 SUB1        0.045
     49 H          19.5639   25.9718    5.9682 H         1 SUB1        0.063
     50 H          19.8963   26.8720    8.2366 H         1 SUB1        0.052
     51 H          21.8281   22.4726    6.9892 H         1 SUB1        0.063
     52 H          22.1876   23.3768    9.2664 H         1 SUB1        0.052
     53 H          20.1928   27.5782   10.3894 H         1 SUB1        0.064
     54 H          21.6795   27.7215    9.5898 H         1 SUB1        0.064
     55 H          22.9544   27.6401   11.7211 H         1 SUB1        0.092
     56 H          20.4996   26.9713   13.8123 H         1 SUB1        0.186
     57 H          19.4036   29.8091   13.8614 H         1 SUB1        0.060
     58 H          17.3724   28.6056   14.6246 H         1 SUB1        0.045
     59 H          18.2935   27.0973   14.8304 H         1 SUB1        0.045
     60 H          17.3884   29.6243   12.1801 H         1 SUB1        0.056
     61 H          16.9709   28.9982    9.8207 H         1 SUB1        0.060
     62 H          17.1739   26.6444    9.0856 H         1 SUB1        0.056
     63 H          17.8846   24.9052   10.7138 H         1 SUB1        0.060
     64 H          18.3163   25.5237   13.0693 H         1 SUB1        0.056
     65 H          21.0147   29.4737   15.6206 H         1 SUB1        0.063
     66 H          20.2095   28.2612   17.4369 H         1 SUB1        0.210
     67 H          19.4156   30.4513   17.3277 H         1 SUB1        0.050
     68 H          18.0794   30.0426   16.2224 H         1 SUB1        0.050
     69 H          19.8096   32.5469   17.3167 H         1 SUB1        0.048
     70 H          20.0456   33.5176   15.8201 H         1 SUB1        0.048
     71 H          21.7542   31.1890   16.7188 H         1 SUB1        0.031
     72 H          22.2977   34.1885   16.7564 H         1 SUB1        0.023
     73 H          22.0454   33.1475   18.1790 H         1 SUB1        0.023
     74 H          23.4868   32.9250   17.1573 H         1 SUB1        0.023
     75 H          21.7447   31.3635   14.3071 H         1 SUB1        0.023
     76 H          22.1526   33.0943   14.4030 H         1 SUB1        0.023
     77 H          23.3219   31.8718   14.9593 H         1 SUB1        0.023
     78 H          16.0145   31.4479   16.5817 H         1 SUB1        0.061
     79 H          14.7204   32.8136   18.2014 H         1 SUB1        0.054
     80 H          16.3028   36.8095   19.3107 H         1 SUB1        0.058
     81 H          15.2384   37.3607   17.9938 H         1 SUB1        0.058
     82 H          14.5831   37.1390   19.6347 H         1 SUB1        0.058
     83 H          16.8680   36.3202   16.9406 H         1 SUB1        0.054
     84 H          18.1615   34.9486   15.3378 H         1 SUB1        0.061
@<TRIPOS>BOND
     1    1    2 2  
     2    2    3 1  
     3    2    4 1  
     4    4    5 ar 
     5    4    7 ar 
     6    5    6 ar 
     7    6    9 ar 
     8    7    8 ar 
     9    8    9 ar 
    10    9   10 1  
    11   10   11 am 
    12   10   14 1  
    13   11   12 2  
    14   11   13 1  
    15   13   15 1  
    16   14   15 1  
    17   15   16 1  
    18   16   17 2  
    19   16   18 am 
    20   18   19 1  
    21   19   20 1  
    22   19   27 1  
    23   20   21 1  
    24   21   22 ar 
    25   21   26 ar 
    26   22   23 ar 
    27   23   24 ar 
    28   24   25 ar 
    29   25   26 ar 
    30   27   28 1  
    31   27   29 1  
    32   29   30 1  
    33   30   31 1  
    34   30   35 1  
    35   31   32 1  
    36   32   33 1  
    37   32   34 1  
    38   35   36 2  
    39   35   37 2  
    40   35   38 1  
    41   38   39 ar 
    42   38   45 ar 
    43   39   40 ar 
    44   40   41 ar 
    45   41   42 1  
    46   41   44 ar 
    47   42   43 1  
    48   44   45 ar 
    49    3   46 1  
    50    3   47 1  
    51    3   48 1  
    52    5   49 1  
    53    6   50 1  
    54    7   51 1  
    55    8   52 1  
    56   14   53 1  
    57   14   54 1  
    58   15   55 1  
    59   18   56 1  
    60   19   57 1  
    61   20   58 1  
    62   20   59 1  
    63   22   60 1  
    64   23   61 1  
    65   24   62 1  
    66   25   63 1  
    67   26   64 1  
    68   27   65 1  
    69   28   66 1  
    70   29   67 1  
    71   29   68 1  
    72   31   69 1  
    73   31   70 1  
    74   32   71 1  
    75   33   72 1  
    76   33   73 1  
    77   33   74 1  
    78   34   75 1  
    79   34   76 1  
    80   34   77 1  
    81   39   78 1  
    82   40   79 1  
    83   43   80 1  
    84   43   81 1  
    85   43   82 1  
    86   44   83 1  
    87   45   84 1  
@<TRIPOS>SUBSTRUCTURE
     1 SUB1        1 GROUP

