### 
### Created by X-TOOL on Mon Oct 24 23:50:30 2005
### 

@<TRIPOS>MOLECULE
1a30_ligand
   49    48     1     0     0
SMALL
GAST_HUCK


@<TRIPOS>ATOM
      1 N           4.8410   27.5760    5.3100 N.4       1 SUB1        0.238
      2 CA          5.7330   26.3940    5.1650 C.3       1 SUB1        0.068
      3 C           7.1740   26.7720    5.5040 C.2       1 SUB1        0.227
      4 O           7.6240   27.8870    5.2180 O.2       1 SUB1       -0.391
      5 CB          5.6380   25.8180    3.7500 C.3       1 SUB1        0.019
      6 CG          5.8270   26.8460    2.6520 C.3       1 SUB1       -0.007
      7 CD          5.6250   26.2750    1.2620 C.2       1 SUB1        0.028
      8 OE1         4.6630   25.4970    1.0650 O.co2     1 SUB1       -0.567
      9 OE2         6.4250   26.6200    0.3630 O.co2     1 SUB1       -0.567
     10 N           7.8730   25.8560    6.1630 N.am      1 SUB1       -0.258
     11 CA          9.2580   26.0720    6.5600 C.3       1 SUB1        0.142
     12 C          10.1010   24.9180    6.0470 C.2       1 SUB1        0.208
     13 O          10.1820   23.8640    6.6820 O.2       1 SUB1       -0.394
     14 CB          9.3460   26.1960    8.0790 C.3       1 SUB1        0.027
     15 CG          8.6490   27.4410    8.5880 C.2       1 SUB1        0.032
     16 OD1         9.2700   28.5180    8.5210 O.co2     1 SUB1       -0.566
     17 OD2         7.4740   27.3570    9.0120 O.co2     1 SUB1       -0.566
     18 N          10.6860   25.1150    4.8690 N.am      1 SUB1       -0.268
     19 CA         11.4980   24.0930    4.2260 C.3       1 SUB1        0.082
     20 C          12.9840   24.3990    4.2680 C.2       1 SUB1        0.053
     21 O          13.7840   23.4420    4.1920 O.co2     1 SUB1       -0.564
     22 CB         11.0380   23.9220    2.7850 C.3       1 SUB1       -0.016
     23 CG          9.5830   23.4660    2.7700 C.3       1 SUB1       -0.042
     24 CD1         8.8190   24.1970    1.7080 C.3       1 SUB1       -0.062
     25 CD2         9.5210   21.9550    2.6020 C.3       1 SUB1       -0.062
     26 OXT        13.3340   25.5920    4.3780 O.co2     1 SUB1       -0.564
     27 H11         5.3842   28.3729    5.6029 H         1 SUB1        0.201
     28 H21         5.4024   25.6212    5.8745 H         1 SUB1        0.110
     29 H51         4.6449   25.3608    3.6285 H         1 SUB1        0.038
     30 H52         6.4133   25.0458    3.6381 H         1 SUB1        0.038
     31 H61         6.8488   27.2476    2.7204 H         1 SUB1        0.049
     32 H62         5.1024   27.6593    2.8052 H         1 SUB1        0.049
     33 H101        7.4339   24.9880    6.3949 H         1 SUB1        0.189
     34 H111        9.6222   27.0066    6.1085 H         1 SUB1        0.084
     35 H141       10.4057   26.2377    8.3712 H         1 SUB1        0.053
     36 H142        8.8744   25.3132    8.5353 H         1 SUB1        0.053
     37 H181       10.5637   25.9949    4.4098 H         1 SUB1        0.190
     38 H191       11.3353   23.1452    4.7600 H         1 SUB1        0.078
     39 H221       11.6644   23.1676    2.2866 H         1 SUB1        0.033
     40 H222       11.1277   24.8814    2.2545 H         1 SUB1        0.033
     41 H231        9.1313   23.7168    3.7411 H         1 SUB1        0.030
     42 H241        8.8455   25.2770    1.9149 H         1 SUB1        0.023
     43 H242        7.7751   23.8502    1.7028 H         1 SUB1        0.023
     44 H243        9.2755   24.0003    0.7267 H         1 SUB1        0.023
     45 H251        9.9927   21.6724    1.6493 H         1 SUB1        0.023
     46 H252        8.4705   21.6288    2.6020 H         1 SUB1        0.023
     47 H253       10.0550   21.4714    3.4332 H         1 SUB1        0.023
     48 H12         4.1330   27.3800    6.0002 H         1 SUB1        0.201
     49 H13         4.4015   27.7759    4.4252 H         1 SUB1        0.201
@<TRIPOS>BOND
     1    3    2 1  
     2    2    5 1  
     3    2    1 1  
     4    5    6 1  
     5    6    7 1  
     6    7    8 2  
     7    7    9 2  
     8    3    4 2  
     9   12   11 1  
    10   11   14 1  
    11   11   10 1  
    12   14   15 1  
    13   15   16 2  
    14   15   17 2  
    15   12   13 2  
    16   19   20 1  
    17   19   22 1  
    18   18   19 1  
    19   22   23 1  
    20   23   25 1  
    21   23   24 1  
    22   20   26 2  
    23   20   21 2  
    24   10    3 am 
    25   12   18 am 
    26    1   27 1  
    27    2   28 1  
    28    5   29 1  
    29    5   30 1  
    30    6   31 1  
    31    6   32 1  
    32   10   33 1  
    33   11   34 1  
    34   14   35 1  
    35   14   36 1  
    36   18   37 1  
    37   19   38 1  
    38   22   39 1  
    39   22   40 1  
    40   23   41 1  
    41   24   42 1  
    42   24   43 1  
    43   24   44 1  
    44   25   45 1  
    45   25   46 1  
    46   25   47 1  
    47    1   48 1  
    48    1   49 1  
@<TRIPOS>SUBSTRUCTURE
     1 SUB1        1 GROUP

