### 
### Created by X-TOOL on Sun Jun  3 11:16:19 2007
### 

@<TRIPOS>MOLECULE
2a31_ligand
   20    19     1     0     0
SMALL
GAST_HUCK


@<TRIPOS>ATOM
      1 OA         35.7140   26.7680   11.3540 O.3       1 SUB1       -0.395
      2 CB         34.4270   26.1990   11.4080 C.3       1 SUB1        0.047
      3 CG         33.3230   27.2280   11.1990 C.3       1 SUB1        0.004
      4 CD         33.5260   28.4430   12.1270 C.3       1 SUB1        0.065
      5 NE         32.2580   28.8610   12.7360 N.pl3     1 SUB1       -0.272
      6 CZ         31.8390   28.4320   13.9250 C.cat     1 SUB1        0.288
      7 NH1        32.4110   27.4120   14.5790 N.pl3     1 SUB1       -0.285
      8 NH2        30.8350   29.0700   14.4930 N.pl3     1 SUB1       -0.285
      9 H          36.3718   26.0823   11.4907 H         1 SUB1        0.209
     10 H          34.2948   25.7611   12.3974 H         1 SUB1        0.056
     11 H          34.3528   25.4603   10.6099 H         1 SUB1        0.056
     12 H          32.3630   26.7659   11.4290 H         1 SUB1        0.032
     13 H          33.3497   27.5676   10.1636 H         1 SUB1        0.032
     14 H          33.9188   29.2708   11.5366 H         1 SUB1        0.069
     15 H          34.2186   28.1634   12.9209 H         1 SUB1        0.069
     16 H          31.6668   29.5141   12.2218 H         1 SUB1        0.264
     17 H          32.0684   27.1409   15.5007 H         1 SUB1        0.262
     18 H          33.1890   26.9066   14.1552 H         1 SUB1        0.262
     19 H          30.5059   28.7847   15.4153 H         1 SUB1        0.262
     20 H          30.3872   29.8489   14.0101 H         1 SUB1        0.262
@<TRIPOS>BOND
     1    1    2 1  
     2    2    3 1  
     3    3    4 1  
     4    4    5 1  
     5    5    6 1  
     6    6    7 1  
     7    6    8 1  
     8    1    9 1  
     9    2   10 1  
    10    2   11 1  
    11    3   12 1  
    12    3   13 1  
    13    4   14 1  
    14    4   15 1  
    15    5   16 1  
    16    7   17 1  
    17    7   18 1  
    18    8   19 1  
    19    8   20 1  
@<TRIPOS>SUBSTRUCTURE
     1 SUB1        1 GROUP

