2a31_ligand
  -I-interpret- 

 20 19  0  0  0  0  0  0  0  0999 V2000
   35.7140   26.7680   11.3540 O   0  0  0  0  0
   34.4270   26.1990   11.4080 C   0  0  0  0  0
   33.3230   27.2280   11.1990 C   0  0  0  0  0
   33.5260   28.4430   12.1270 C   0  0  0  0  0
   32.2580   28.8610   12.7360 N   0  0  0  0  0
   31.8390   28.4320   13.9250 C   0  3  0  0  0
   32.4110   27.4120   14.5790 N   0  0  0  0  0
   30.8350   29.0700   14.4930 N   0  0  0  0  0
   36.3718   26.0823   11.4907 H   0  0  0  0  0
   34.2948   25.7611   12.3974 H   0  0  0  0  0
   34.3528   25.4603   10.6099 H   0  0  0  0  0
   32.3630   26.7659   11.4290 H   0  0  0  0  0
   33.3497   27.5676   10.1636 H   0  0  0  0  0
   33.9188   29.2708   11.5366 H   0  0  0  0  0
   34.2186   28.1634   12.9209 H   0  0  0  0  0
   31.6668   29.5141   12.2218 H   0  0  0  0  0
   32.0684   27.1409   15.5007 H   0  0  0  0  0
   33.1890   26.9066   14.1552 H   0  0  0  0  0
   30.5059   28.7847   15.4153 H   0  0  0  0  0
   30.3872   29.8489   14.0101 H   0  0  0  0  0
  1  2  1  0  0  0
  2  3  1  0  0  0
  3  4  1  0  0  0
  4  5  1  0  0  0
  5  6  1  0  0  0
  6  7  1  0  0  0
  6  8  1  0  0  0
  1  9  1  0  0  0
  2 10  1  0  0  0
  2 11  1  0  0  0
  3 12  1  0  0  0
  3 13  1  0  0  0
  4 14  1  0  0  0
  4 15  1  0  0  0
  5 16  1  0  0  0
  7 17  1  0  0  0
  7 18  1  0  0  0
  8 19  1  0  0  0
  8 20  1  0  0  0
M  END
$$$$
