### 
### Created by X-TOOL on Mon Oct 24 23:15:52 2005
### 

@<TRIPOS>MOLECULE
1s63_ligand
   49    52     1     0     0
SMALL
GAST_HUCK


@<TRIPOS>ATOM
      1 N1         18.5610  135.2050   -0.0600 N.3       1 SUB1       -0.234
      2 C2         17.2650  135.6440    0.4650 C.3       1 SUB1        0.036
      3 C3         19.7520  135.2070    0.7900 C.3       1 SUB1        0.135
      4 C4         18.9500  135.8920   -1.2990 C.3       1 SUB1        0.103
      5 C5         16.3280  135.0430   -0.5960 C.3       1 SUB1        0.069
      6 C7         19.5950  134.1260    1.8570 C.ar      1 SUB1        0.201
      7 C8         17.8720  135.6640   -2.4020 C.2       1 SUB1        0.221
      8 N9         16.5930  135.2440   -2.0230 N.am      1 SUB1       -0.218
      9 N11        20.1020  132.8670    1.7040 N.ar      1 SUB1       -0.231
     10 C12        18.9610  134.2450    3.0400 C.ar      1 SUB1        0.186
     11 O13        18.1540  135.8470   -3.5710 O.2       1 SUB1       -0.383
     12 C14        15.5650  135.0040   -2.9070 C.ar      1 SUB1        0.070
     13 C16        20.8650  132.3200    0.5570 C.3       1 SUB1        0.056
     14 C17        19.8100  132.1530    2.7740 C.ar      1 SUB1        0.170
     15 N18        19.0960  132.9550    3.6550 N.ar      1 SUB1       -0.135
     16 C20        15.0300  133.7270   -2.8320 C.ar      1 SUB1       -0.027
     17 C21        15.0300  135.9470   -3.8520 C.ar      1 SUB1       -0.041
     18 C25        20.0510  132.2060   -0.7400 C.ar      1 SUB1       -0.024
     19 C26        13.9770  133.3250   -3.6540 C.ar      1 SUB1        0.027
     20 C27        13.9670  135.5450   -4.6930 C.ar      1 SUB1       -0.075
     21 C28        20.6160  132.5930   -1.9770 C.ar      1 SUB1       -0.048
     22 C29        18.7370  131.7180   -0.7350 C.ar      1 SUB1       -0.048
     23 C30        13.4400  134.2320   -4.5910 C.ar      1 SUB1       -0.063
     24 CL31       13.3840  131.7160   -3.4630 Cl        1 SUB1       -0.075
     25 C32        19.8810  132.4840   -3.1800 C.ar      1 SUB1       -0.033
     26 C33        18.0080  131.6100   -1.9240 C.ar      1 SUB1       -0.033
     27 C34        18.5870  131.9950   -3.1560 C.ar      1 SUB1        0.088
     28 C35        17.8950  131.8790   -4.2840 C.1       1 SUB1        0.093
     29 N36        17.2860  131.7730   -5.2800 N.1       1 SUB1       -0.334
     30 H21        17.1899  136.7408    0.5014 H         1 SUB1        0.046
     31 H22        17.0682  135.2296    1.4648 H         1 SUB1        0.046
     32 H31        19.8608  136.1897    1.2722 H         1 SUB1        0.115
     33 H32        20.6427  134.9975    0.1794 H         1 SUB1        0.115
     34 H41        19.9152  135.4954   -1.6468 H         1 SUB1        0.068
     35 H42        19.0460  136.9700   -1.1021 H         1 SUB1        0.068
     36 H51        15.3265  135.4538   -0.4008 H         1 SUB1        0.060
     37 H52        16.3177  133.9560   -0.4277 H         1 SUB1        0.060
     38 H101       18.4605  135.1200    3.4385 H         1 SUB1        0.177
     39 H131       21.2248  131.3165    0.8284 H         1 SUB1        0.056
     40 H132       21.7251  132.9793    0.3682 H         1 SUB1        0.056
     41 H141       20.0812  131.1164    2.9379 H         1 SUB1        0.216
     42 H161       15.4403  133.0234   -2.1167 H         1 SUB1        0.051
     43 H171       15.4354  136.9501   -3.9184 H         1 SUB1        0.050
     44 H201       13.5548  136.2400   -5.4156 H         1 SUB1        0.058
     45 H211       21.6285  132.9793   -2.0035 H         1 SUB1        0.058
     46 H221       18.2800  131.4206    0.2019 H         1 SUB1        0.058
     47 H231       12.6232  133.9253   -5.2343 H         1 SUB1        0.049
     48 H251       20.3308  132.7832   -4.1198 H         1 SUB1        0.070
     49 H261       16.9934  131.2290   -1.9012 H         1 SUB1        0.070
@<TRIPOS>BOND
     1    1    2 1  
     2    1    3 1  
     3    1    4 1  
     4    2    5 1  
     5    3    6 1  
     6    4    7 1  
     7    5    8 1  
     8    6    9 ar 
     9    6   10 ar 
    10    7    8 am 
    11    7   11 2  
    12    8   12 1  
    13    9   13 1  
    14    9   14 ar 
    15   10   15 ar 
    16   12   16 ar 
    17   12   17 ar 
    18   13   18 1  
    19   14   15 ar 
    20   16   19 ar 
    21   17   20 ar 
    22   18   21 ar 
    23   18   22 ar 
    24   19   23 ar 
    25   19   24 1  
    26   20   23 ar 
    27   21   25 ar 
    28   22   26 ar 
    29   25   27 ar 
    30   26   27 ar 
    31   27   28 1  
    32   28   29 3  
    33    2   30 1  
    34    2   31 1  
    35    3   32 1  
    36    3   33 1  
    37    4   34 1  
    38    4   35 1  
    39    5   36 1  
    40    5   37 1  
    41   10   38 1  
    42   13   39 1  
    43   13   40 1  
    44   14   41 1  
    45   16   42 1  
    46   17   43 1  
    47   20   44 1  
    48   21   45 1  
    49   22   46 1  
    50   23   47 1  
    51   25   48 1  
    52   26   49 1  
@<TRIPOS>SUBSTRUCTURE
     1 SUB1        1 GROUP

