### 
### Created by X-TOOL on Sun Jun  3 11:28:10 2007
### 

@<TRIPOS>MOLECULE
2gvv_ligand
   35    36     1     0     0
SMALL
GAST_HUCK


@<TRIPOS>ATOM
      1 CAB        19.6170    4.9840   58.4910 C.3       1 SUB1       -0.020
      2 CAJ        21.0620    4.6560   58.1030 C.3       1 SUB1       -0.050
      3 CAK        21.4050    3.5080   59.0510 C.3       1 SUB1       -0.050
      4 CAL        20.8830    4.1270   60.3470 C.3       1 SUB1       -0.020
      5 CAC        19.4540    4.4810   59.9300 C.3       1 SUB1        0.104
      6 OAD        18.6820    3.2760   59.8910 O.3       1 SUB1       -0.216
      7 PAE        17.7730    2.8330   61.1460 P.3       1 SUB1        0.363
      8 NAM        17.4800    4.1850   61.9950 N.am      1 SUB1       -0.257
      9 OAA        16.5330    2.1360   60.7390 O.2       1 SUB1       -0.521
     10 OAF        18.7160    1.9200   62.0790 O.3       1 SUB1       -0.216
     11 CAG        18.3480    1.6610   63.4370 C.3       1 SUB1        0.104
     12 CAH        18.4440    0.1580   63.7050 C.3       1 SUB1       -0.020
     13 CAI        19.9590   -0.0010   63.8190 C.3       1 SUB1       -0.050
     14 CAO        20.2210    1.0740   64.8740 C.3       1 SUB1       -0.050
     15 CAN        19.4320    2.2700   64.3340 C.3       1 SUB1       -0.020
     16 H          18.9128    4.4682   57.8216 H         1 SUB1        0.030
     17 H          19.4425    6.0689   58.4411 H         1 SUB1        0.030
     18 H          21.7238    5.5191   58.2678 H         1 SUB1        0.027
     19 H          21.1292    4.3377   57.0522 H         1 SUB1        0.027
     20 H          22.4866    3.3115   59.0909 H         1 SUB1        0.027
     21 H          20.8733    2.5811   58.7901 H         1 SUB1        0.027
     22 H          21.4570    5.0217   60.6299 H         1 SUB1        0.030
     23 H          20.8970    3.4048   61.1766 H         1 SUB1        0.030
     24 H          18.9972    5.2325   60.5908 H         1 SUB1        0.067
     25 H          16.9070    4.9059   61.6052 H         1 SUB1        0.167
     26 H          17.8725    4.2971   62.9079 H         1 SUB1        0.167
     27 H          17.3470    2.0571   63.6628 H         1 SUB1        0.067
     28 H          18.0343   -0.4313   62.8714 H         1 SUB1        0.030
     29 H          17.9337   -0.1227   64.6382 H         1 SUB1        0.030
     30 H          20.4711    0.2162   62.8700 H         1 SUB1        0.027
     31 H          20.2453   -1.0037   64.1691 H         1 SUB1        0.027
     32 H          21.2938    1.3061   64.9468 H         1 SUB1        0.027
     33 H          19.8454    0.7629   65.8600 H         1 SUB1        0.027
     34 H          18.9767    2.8368   65.1595 H         1 SUB1        0.030
     35 H          20.0876    2.9337   63.7512 H         1 SUB1        0.030
@<TRIPOS>BOND
     1    1    2 1  
     2    1    5 1  
     3    2    3 1  
     4    3    4 1  
     5    4    5 1  
     6    5    6 1  
     7    6    7 1  
     8    7    8 am 
     9    7    9 2  
    10    7   10 1  
    11   10   11 1  
    12   11   12 1  
    13   11   15 1  
    14   12   13 1  
    15   13   14 1  
    16   14   15 1  
    17    1   16 1  
    18    1   17 1  
    19    2   18 1  
    20    2   19 1  
    21    3   20 1  
    22    3   21 1  
    23    4   22 1  
    24    4   23 1  
    25    5   24 1  
    26    8   25 1  
    27    8   26 1  
    28   11   27 1  
    29   12   28 1  
    30   12   29 1  
    31   13   30 1  
    32   13   31 1  
    33   14   32 1  
    34   14   33 1  
    35   15   34 1  
    36   15   35 1  
@<TRIPOS>SUBSTRUCTURE
     1 SUB1        1 GROUP

