### 
### Created by X-TOOL on Mon Oct 24 21:53:12 2005
### 

@<TRIPOS>MOLECULE
1sdu_ligand
   92    96     1     0     0
SMALL
GAST_HUCK


@<TRIPOS>ATOM
      1 N1         22.4900   34.6490   16.2760 N.3       1 SUB1       -0.285
      2 C1         21.0860   34.5220   15.6530 C.3       1 SUB1        0.034
      3 C2         20.2080   33.3980   16.2070 C.3       1 SUB1        0.114
      4 C3         18.8930   33.4290   15.5050 C.2       1 SUB1        0.195
      5 O1         18.9020   33.0570   14.3260 O.2       1 SUB1       -0.395
      6 N2         17.9050   33.8850   16.2600 N.am      1 SUB1       -0.280
      7 C4         16.5340   33.9160   15.8010 C.3       1 SUB1        0.045
      8 C5         15.6670   34.5990   16.9150 C.3       1 SUB1       -0.040
      9 C6         16.0650   32.6010   15.6750 C.3       1 SUB1       -0.040
     10 C7         16.3710   34.7240   14.6040 C.3       1 SUB1       -0.040
     11 N3         21.0370   32.1620   15.8920 N.3       1 SUB1       -0.278
     12 C8         22.3960   32.2170   16.4380 C.3       1 SUB1        0.014
     13 C9         23.1200   33.4410   15.9830 C.3       1 SUB1        0.014
     14 C10        20.3530   30.9880   16.4880 C.3       1 SUB1        0.028
     15 C11        20.5500   29.8030   15.5310 C.3       1 SUB1        0.071
     16 O2         20.4910   28.7330   16.4360 O.3       1 SUB1       -0.390
     17 C12        19.3540   29.6770   14.5540 C.3       1 SUB1       -0.004
     18 C13        19.4510   28.4760   13.5860 C.3       1 SUB1        0.061
     19 C14        18.1360   28.4130   12.7500 C.3       1 SUB1        0.001
     20 C15        18.1380   27.3760   11.6940 C.ar      1 SUB1       -0.041
     21 C16        18.2960   26.0280   12.0500 C.ar      1 SUB1       -0.060
     22 C17        18.3000   25.0690   11.0230 C.ar      1 SUB1       -0.069
     23 C18        18.1340   25.4980    9.7160 C.ar      1 SUB1       -0.069
     24 C19        17.9710   26.8340    9.3770 C.ar      1 SUB1       -0.069
     25 C20        17.9860   27.7900   10.3810 C.ar      1 SUB1       -0.060
     26 C21        20.5790   28.6310   12.5990 C.2       1 SUB1        0.183
     27 O3         20.8840   29.6850   11.9850 O.2       1 SUB1       -0.396
     28 N4         21.2060   27.5160   12.3440 N.am      1 SUB1       -0.271
     29 C22        22.2100   27.3920   11.3130 C.3       1 SUB1        0.101
     30 C23        22.1360   26.0410   10.6250 C.3       1 SUB1        0.095
     31 O4         22.0140   24.9160   11.5440 O.3       1 SUB1       -0.386
     32 C24        23.4720   25.9700    9.8950 C.3       1 SUB1        0.009
     33 C25        24.5050   26.6700   10.7540 C.ar      1 SUB1       -0.036
     34 C26        25.8520   26.6850   10.9310 C.ar      1 SUB1       -0.067
     35 C27        26.4610   27.5260   11.8580 C.ar      1 SUB1       -0.075
     36 C28        25.7300   28.4010   12.6500 C.ar      1 SUB1       -0.075
     37 C29        24.3670   28.4300   12.4870 C.ar      1 SUB1       -0.065
     38 C30        23.6800   27.6230   11.6250 C.ar      1 SUB1       -0.013
     39 C31        23.1300   35.8060   15.6500 C.3       1 SUB1        0.039
     40 C32        22.5830   37.1560   16.0470 C.ar      1 SUB1       -0.001
     41 C33        22.5090   37.5080   17.3970 C.ar      1 SUB1        0.014
     42 N5         21.9640   38.7480   17.7810 N.ar      1 SUB1       -0.304
     43 C34        21.5260   39.5520   16.7370 C.ar      1 SUB1        0.004
     44 C35        21.5670   39.2460   15.3740 C.ar      1 SUB1       -0.040
     45 C36        22.1180   38.0100   15.0610 C.ar      1 SUB1       -0.039
     46 H21        21.2105   34.3513   14.5735 H         1 SUB1        0.047
     47 H22        20.5579   35.4732   15.8154 H         1 SUB1        0.047
     48 H31        20.0497   33.4975   17.2910 H         1 SUB1        0.072
     49 H61        18.1142   34.2193   17.1789 H         1 SUB1        0.186
     50 H81        14.6165   34.6358   16.5909 H         1 SUB1        0.025
     51 H82        16.0330   35.6216   17.0891 H         1 SUB1        0.025
     52 H83        15.7433   34.0187   17.8463 H         1 SUB1        0.025
     53 H91        15.0219   32.6156   15.3260 H         1 SUB1        0.025
     54 H92        16.1178   32.0977   16.6517 H         1 SUB1        0.025
     55 H93        16.6871   32.0578   14.9484 H         1 SUB1        0.025
     56 H101       15.3148   34.7152   14.2968 H         1 SUB1        0.025
     57 H102       16.9915   34.3107   13.7953 H         1 SUB1        0.025
     58 H103       16.6832   35.7576   14.8140 H         1 SUB1        0.025
     59 H121       22.9516   31.3284   16.1039 H         1 SUB1        0.044
     60 H122       22.3398   32.2228   17.5365 H         1 SUB1        0.044
     61 H131       24.1096   33.4486   16.4631 H         1 SUB1        0.044
     62 H132       23.2424   33.3774   14.8917 H         1 SUB1        0.044
     63 H141       19.2802   31.1994   16.6078 H         1 SUB1        0.045
     64 H142       20.7927   30.7553   17.4691 H         1 SUB1        0.045
     65 H151       21.5031   29.8553   14.9843 H         1 SUB1        0.061
     66 H161       20.6015   27.9152   15.9654 H         1 SUB1        0.210
     67 H171       19.2984   30.5985   13.9559 H         1 SUB1        0.032
     68 H172       18.4339   29.5687   15.1470 H         1 SUB1        0.032
     69 H181       19.5865   27.5499   14.1640 H         1 SUB1        0.056
     70 H191       17.9838   29.3919   12.2719 H         1 SUB1        0.045
     71 H192       17.3010   28.2058   13.4354 H         1 SUB1        0.045
     72 H211       18.4116   25.7349   13.0872 H         1 SUB1        0.056
     73 H221       18.4301   24.0167   11.2483 H         1 SUB1        0.060
     74 H231       18.1313   24.7580    8.9238 H         1 SUB1        0.056
     75 H241       17.8339   27.1258    8.3420 H         1 SUB1        0.060
     76 H251       17.8807   28.8422   10.1428 H         1 SUB1        0.056
     77 H281       20.9807   26.7081   12.8885 H         1 SUB1        0.188
     78 H291       21.9410   28.1574   10.5702 H         1 SUB1        0.073
     79 H301       21.2940   26.0172    9.9176 H         1 SUB1        0.066
     80 H311       21.9730   24.1066   11.0483 H         1 SUB1        0.210
     81 H321       23.3931   26.4728    8.9198 H         1 SUB1        0.044
     82 H322       23.7607   24.9194    9.7436 H         1 SUB1        0.044
     83 H341       26.4695   26.0238   10.3338 H         1 SUB1        0.054
     84 H351       27.5393   27.4968   11.9648 H         1 SUB1        0.054
     85 H361       26.2200   29.0414   13.3745 H         1 SUB1        0.054
     86 H371       23.7999   29.1384   13.0801 H         1 SUB1        0.054
     87 H391       23.0188   35.7043   14.5604 H         1 SUB1        0.060
     88 H392       24.1978   35.7842   15.9133 H         1 SUB1        0.060
     89 H411       22.8734   36.8223   18.1533 H         1 SUB1        0.076
     90 H431       21.1096   40.5158   17.0069 H         1 SUB1        0.077
     91 H441       21.1953   39.9249   14.6151 H         1 SUB1        0.069
     92 H451       22.1855   37.7073   14.0223 H         1 SUB1        0.068
@<TRIPOS>BOND
     1    1    2 1  
     2    1   13 1  
     3    1   39 1  
     4    2    3 1  
     5    3    4 1  
     6    3   11 1  
     7    4    5 2  
     8    4    6 am 
     9    6    7 1  
    10    7    8 1  
    11    7    9 1  
    12    7   10 1  
    13   11   12 1  
    14   11   14 1  
    15   12   13 1  
    16   14   15 1  
    17   15   16 1  
    18   15   17 1  
    19   17   18 1  
    20   18   19 1  
    21   18   26 1  
    22   19   20 1  
    23   20   21 ar 
    24   20   25 ar 
    25   21   22 ar 
    26   22   23 ar 
    27   23   24 ar 
    28   24   25 ar 
    29   26   27 2  
    30   26   28 am 
    31   28   29 1  
    32   29   30 1  
    33   29   38 1  
    34   30   31 1  
    35   30   32 1  
    36   32   33 1  
    37   33   34 ar 
    38   33   38 ar 
    39   34   35 ar 
    40   35   36 ar 
    41   36   37 ar 
    42   37   38 ar 
    43   39   40 1  
    44   40   41 ar 
    45   40   45 ar 
    46   41   42 ar 
    47   42   43 ar 
    48   43   44 ar 
    49   44   45 ar 
    50    2   46 1  
    51    2   47 1  
    52    3   48 1  
    53    6   49 1  
    54    8   50 1  
    55    8   51 1  
    56    8   52 1  
    57    9   53 1  
    58    9   54 1  
    59    9   55 1  
    60   10   56 1  
    61   10   57 1  
    62   10   58 1  
    63   12   59 1  
    64   12   60 1  
    65   13   61 1  
    66   13   62 1  
    67   14   63 1  
    68   14   64 1  
    69   15   65 1  
    70   16   66 1  
    71   17   67 1  
    72   17   68 1  
    73   18   69 1  
    74   19   70 1  
    75   19   71 1  
    76   21   72 1  
    77   22   73 1  
    78   23   74 1  
    79   24   75 1  
    80   25   76 1  
    81   28   77 1  
    82   29   78 1  
    83   30   79 1  
    84   31   80 1  
    85   32   81 1  
    86   32   82 1  
    87   34   83 1  
    88   35   84 1  
    89   36   85 1  
    90   37   86 1  
    91   39   87 1  
    92   39   88 1  
    93   41   89 1  
    94   43   90 1  
    95   44   91 1  
    96   45   92 1  
@<TRIPOS>SUBSTRUCTURE
     1 SUB1        1 GROUP

