### 
### Created by X-TOOL on Mon Oct 24 22:00:59 2005
### 

@<TRIPOS>MOLECULE
1y1z_ligand
   17    17     1     0     0
SMALL
GAST_HUCK


@<TRIPOS>ATOM
      1 N          21.1770   31.2640    7.6480 N.4       1 SUB1        0.150
      2 O          22.9300   34.0990    8.9290 O.co2     1 SUB1       -0.460
      3 CA         21.3890   32.6990    7.8520 C.3       1 SUB1        0.029
      4 C          22.6440   32.8520    8.6970 C.2       1 SUB1        0.177
      5 CB1        21.4260   33.4870    6.5130 C.3       1 SUB1       -0.034
      6 CG         20.0600   34.0470    6.8090 C.3       1 SUB1       -0.066
      7 CB2        20.1430   33.5410    8.2560 C.3       1 SUB1       -0.034
      8 OXT        23.2630   31.9250    9.1010 O.co2     1 SUB1       -0.460
      9 H11        20.3499   31.1226    7.0894 H         1 SUB1        0.195
     10 H12        21.0607   30.8112    8.5410 H         1 SUB1        0.195
     11 H13        21.9744   30.8707    7.1732 H         1 SUB1        0.195
     12 H51        21.4662   32.8498    5.6173 H         1 SUB1        0.017
     13 H52        22.2209   34.2455    6.4595 H         1 SUB1        0.017
     14 H61        19.2522   33.5866    6.2212 H         1 SUB1        0.024
     15 H62        19.9984   35.1418    6.7223 H         1 SUB1        0.024
     16 H71        20.3464   34.3250    9.0003 H         1 SUB1        0.017
     17 H72        19.2770   32.9446    8.5790 H         1 SUB1        0.017
@<TRIPOS>BOND
     1    3    1 1  
     2    4    2 2  
     3    3    4 1  
     4    3    5 1  
     5    3    7 1  
     6    4    8 2  
     7    5    6 1  
     8    6    7 1  
     9    1    9 1  
    10    1   10 1  
    11    1   11 1  
    12    5   12 1  
    13    5   13 1  
    14    6   14 1  
    15    6   15 1  
    16    7   16 1  
    17    7   17 1  
@<TRIPOS>SUBSTRUCTURE
     1 SUB1        1 GROUP

