1uxb_ligand
  -I-interpret- 

 60 61  0  0  0  0  0  0  0  0999 V2000
   45.6930   53.0680   66.2750 C   0  0  0  0  0
   46.6500   52.5170   65.1700 C   0  0  0  0  0
   46.6390   50.9720   65.1590 C   0  0  0  0  0
   45.3830   50.3490   64.4770 C   0  0  0  0  0
   45.0290   51.0510   63.1630 C   0  0  0  0  0
   44.9680   52.5450   63.4530 C   0  0  0  0  0
   44.5060   53.3710   62.2490 C   0  0  0  0  0
   44.5630   54.8230   62.6530 C   0  0  0  0  0
   43.8180   55.6620   61.6380 C   0  0  0  0  0
   43.4990   49.8990   61.6470 C   0  0  0  0  0
   42.0420   49.6190   61.3380 C   0  0  0  0  0
   43.7070   50.6150   62.7480 N   0  0  0  0  0
   45.7120   52.5420   67.4080 O   0  5  0  0  0
   44.9670   54.0510   66.0200 O   0  0  0  0  0
   45.6650   49.0070   64.1860 O   0  0  0  0  0
   46.2550   53.0280   63.8850 O   0  0  0  0  0
   45.3800   53.1430   61.1480 O   0  0  0  0  0
   43.9660   54.9820   63.9340 O   0  0  0  0  0
   44.2220   57.0120   61.7970 O   0  0  0  0  0
   44.3920   49.4540   60.9030 O   0  0  0  0  0
   49.4100   56.3700   64.6080 C   0  0  0  0  0
   49.1680   54.8630   64.4370 C   0  0  0  0  0
   48.0820   54.4020   65.4330 C   0  0  0  0  0
   48.4380   54.8150   66.8570 C   0  0  0  0  0
   48.6840   56.3170   66.8780 C   0  0  0  0  0
   49.0550   56.8470   68.2390 C   0  0  0  0  0
   50.4490   56.8040   63.7850 O   0  0  0  0  0
   48.7520   54.6010   63.1010 O   0  0  0  0  0
   47.9460   52.9680   65.3980 O   0  0  0  0  0
   49.6120   54.1050   67.2430 O   0  0  0  0  0
   49.7590   56.6480   65.9660 O   0  0  0  0  0
   49.0660   58.2700   68.2450 O   0  0  0  0  0
   46.6776   50.6189   66.2001 H   0  0  0  0  0
   47.5328   50.6240   64.6204 H   0  0  0  0  0
   44.5275   50.4145   65.1653 H   0  0  0  0  0
   45.7746   50.8298   62.3851 H   0  0  0  0  0
   44.2456   52.6984   64.2682 H   0  0  0  0  0
   43.4784   53.0946   61.9704 H   0  0  0  0  0
   45.6126   55.1493   62.6961 H   0  0  0  0  0
   42.7345   55.5753   61.8065 H   0  0  0  0  0
   44.0597   55.3183   60.6214 H   0  0  0  0  0
   41.9706   49.0247   60.4151 H   0  0  0  0  0
   41.5062   50.5703   61.2038 H   0  0  0  0  0
   41.5917   49.0588   62.1706 H   0  0  0  0  0
   42.9208   50.8636   63.3137 H   0  0  0  0  0
   45.8880   48.5502   64.9886 H   0  0  0  0  0
   46.2688   53.3654   61.3993 H   0  0  0  0  0
   44.4359   54.4541   64.5689 H   0  0  0  0  0
   43.7635   57.5550   61.1665 H   0  0  0  0  0
   48.4898   56.9130   64.3468 H   0  0  0  0  0
   50.1013   54.3174   64.6399 H   0  0  0  0  0
   47.1245   54.8646   65.1515 H   0  0  0  0  0
   47.6131   54.5666   67.5409 H   0  0  0  0  0
   47.7621   56.8186   66.5485 H   0  0  0  0  0
   50.0557   56.4782   68.5085 H   0  0  0  0  0
   48.3215   56.4896   68.9767 H   0  0  0  0  0
   50.5756   57.7382   63.9026 H   0  0  0  0  0
   49.4274   54.8885   62.4981 H   0  0  0  0  0
   49.4370   53.1715   67.2232 H   0  0  0  0  0
   49.7008   58.5833   67.6115 H   0  0  0  0  0
  2  1  1  0  0  0
  1 13  1  0  0  0
  1 14  2  0  0  0
  2  3  1  0  0  0
  2 16  1  0  0  0
 29  2  1  0  0  0
  3  4  1  0  0  0
  4  5  1  0  0  0
  4 15  1  0  0  0
  6  5  1  0  0  0
  5 12  1  0  0  0
  6  7  1  0  0  0
 16  6  1  0  0  0
  7  8  1  0  0  0
  7 17  1  0  0  0
  8  9  1  0  0  0
  8 18  1  0  0  0
  9 19  1  0  0  0
 10 11  1  0  0  0
 12 10  1  0  0  0
 10 20  2  0  0  0
 22 21  1  0  0  0
 21 27  1  0  0  0
 21 31  1  0  0  0
 23 22  1  0  0  0
 22 28  1  0  0  0
 23 24  1  0  0  0
 23 29  1  0  0  0
 24 25  1  0  0  0
 24 30  1  0  0  0
 25 26  1  0  0  0
 25 31  1  0  0  0
 26 32  1  0  0  0
  3 33  1  0  0  0
  3 34  1  0  0  0
  4 35  1  0  0  0
  5 36  1  0  0  0
  6 37  1  0  0  0
  7 38  1  0  0  0
  8 39  1  0  0  0
  9 40  1  0  0  0
  9 41  1  0  0  0
 11 42  1  0  0  0
 11 43  1  0  0  0
 11 44  1  0  0  0
 12 45  1  0  0  0
 15 46  1  0  0  0
 17 47  1  0  0  0
 18 48  1  0  0  0
 19 49  1  0  0  0
 21 50  1  0  0  0
 22 51  1  0  0  0
 23 52  1  0  0  0
 24 53  1  0  0  0
 25 54  1  0  0  0
 26 55  1  0  0  0
 26 56  1  0  0  0
 27 57  1  0  0  0
 28 58  1  0  0  0
 30 59  1  0  0  0
 32 60  1  0  0  0
M  END
$$$$
