### 
### Created by X-TOOL on Sun Jun  3 11:17:32 2007
### 

@<TRIPOS>MOLECULE
2bz6_ligand
   54    56     1     0     0
SMALL
GAST_HUCK


@<TRIPOS>ATOM
      1 F30         9.1080   41.7380   30.0750 F         1 SUB1       -0.097
      2 C12         9.9720   42.3270   30.9280 C.ar      1 SUB1        0.282
      3 C13        10.3470   43.6140   30.6520 C.ar      1 SUB1        0.216
      4 O25         9.7850   44.1710   29.5170 O.3       1 SUB1       -0.269
      5 C26        10.2010   45.4940   29.1980 C.3       1 SUB1        0.121
      6 C27         9.3320   45.9850   28.0480 C.3       1 SUB1        0.006
      7 C29        10.1360   45.5400   26.8400 C.3       1 SUB1        0.051
      8 O28        11.5180   45.5570   27.2220 O.3       1 SUB1       -0.377
      9 C31        11.6330   45.4950   28.6530 C.3       1 SUB1        0.081
     10 C8         11.2410   44.2760   31.4940 C.ar      1 SUB1        0.067
     11 C9         11.7300   43.6010   32.6210 C.ar      1 SUB1        0.169
     12 O23        12.6290   44.3560   33.3710 O.3       1 SUB1       -0.263
     13 C24        13.1870   43.6600   34.4920 C.3       1 SUB1        0.091
     14 C30        14.1920   44.5270   35.2280 C.3       1 SUB1       -0.032
     15 C10        11.3480   42.2770   32.8800 C.ar      1 SUB1        0.050
     16 C11        10.4570   41.6220   32.0350 C.ar      1 SUB1        0.112
     17 C14        10.0230   40.2110   32.3020 C.3       1 SUB1        0.140
     18 C15         9.2560   40.1290   33.5870 C.2       1 SUB1        0.075
     19 O2          8.1130   40.6840   33.5850 O.2       1 SUB1       -0.564
     20 O1          9.7280   39.5130   34.6070 O.2       1 SUB1       -0.564
     21 N3         11.2180   39.3530   32.3730 N.pl3     1 SUB1       -0.295
     22 C1         11.9230   38.9250   31.2570 C.ar      1 SUB1        0.041
     23 C2         11.4990   39.1680   29.9520 C.ar      1 SUB1       -0.044
     24 C3         12.2610   38.6980   28.9200 C.ar      1 SUB1       -0.068
     25 C4         13.4510   37.9890   29.1110 C.ar      1 SUB1        0.012
     26 C7         14.2220   37.5220   27.9870 C.cat     1 SUB1        0.228
     27 N1         13.7920   37.6600   26.7030 N.pl3     1 SUB1       -0.274
     28 N2         15.3790   36.8700   28.1410 N.pl3     1 SUB1       -0.274
     29 C5         13.8740   37.7410   30.4220 C.ar      1 SUB1       -0.068
     30 C6         13.1180   38.2170   31.4570 C.ar      1 SUB1       -0.044
     31 H          10.1285   46.1080   30.0957 H         1 SUB1        0.071
     32 H           9.1453   47.0586   28.0732 H         1 SUB1        0.032
     33 H           8.3192   45.5824   28.0672 H         1 SUB1        0.032
     34 H           9.9625   46.2074   25.9959 H         1 SUB1        0.056
     35 H           9.8364   44.5401   26.5262 H         1 SUB1        0.056
     36 H          12.1726   44.6009   28.9652 H         1 SUB1        0.059
     37 H          12.1993   46.3428   29.0385 H         1 SUB1        0.059
     38 H          11.5531   45.2981   31.2797 H         1 SUB1        0.062
     39 H          13.6959   42.7667   34.1299 H         1 SUB1        0.067
     40 H          12.3808   43.4011   35.1784 H         1 SUB1        0.067
     41 H          14.9998   44.8005   34.5493 H         1 SUB1        0.026
     42 H          13.6970   45.4290   35.5880 H         1 SUB1        0.026
     43 H          14.5984   43.9720   36.0735 H         1 SUB1        0.026
     44 H          11.7516   41.7573   33.7490 H         1 SUB1        0.089
     45 H           9.3706   39.8750   31.4960 H         1 SUB1        0.091
     46 H          11.5453   39.0572   33.2927 H         1 SUB1        0.181
     47 H          10.5797   39.7209   29.7588 H         1 SUB1        0.052
     48 H          11.9255   38.8845   27.8998 H         1 SUB1        0.058
     49 H          12.8955   38.1069   26.5106 H         1 SUB1        0.318
     50 H          14.3662   37.3165   25.9332 H         1 SUB1        0.318
     51 H          15.7418   36.6891   29.0770 H         1 SUB1        0.318
     52 H          15.8989   36.5535   27.3225 H         1 SUB1        0.318
     53 H          14.7882   37.1794   30.6140 H         1 SUB1        0.058
     54 H          13.4568   38.0396   32.4777 H         1 SUB1        0.052
@<TRIPOS>BOND
     1    1    2 1  
     2    2    3 ar 
     3    2   16 ar 
     4    3    4 1  
     5    3   10 ar 
     6    4    5 1  
     7    5    6 1  
     8    5    9 1  
     9    6    7 1  
    10    7    8 1  
    11    8    9 1  
    12   10   11 ar 
    13   11   12 1  
    14   11   15 ar 
    15   12   13 1  
    16   13   14 1  
    17   15   16 ar 
    18   16   17 1  
    19   17   18 1  
    20   17   21 1  
    21   18   19 2  
    22   18   20 2  
    23   21   22 1  
    24   22   23 ar 
    25   22   30 ar 
    26   23   24 ar 
    27   24   25 ar 
    28   25   26 1  
    29   25   29 ar 
    30   26   27 1  
    31   26   28 1  
    32   29   30 ar 
    33    5   31 1  
    34    6   32 1  
    35    6   33 1  
    36    7   34 1  
    37    7   35 1  
    38    9   36 1  
    39    9   37 1  
    40   10   38 1  
    41   13   39 1  
    42   13   40 1  
    43   14   41 1  
    44   14   42 1  
    45   14   43 1  
    46   15   44 1  
    47   17   45 1  
    48   21   46 1  
    49   23   47 1  
    50   24   48 1  
    51   27   49 1  
    52   27   50 1  
    53   28   51 1  
    54   28   52 1  
    55   29   53 1  
    56   30   54 1  
@<TRIPOS>SUBSTRUCTURE
     1 SUB1        1 GROUP

