2bz6_ligand
  -I-interpret- 

 54 56  0  0  0  0  0  0  0  0999 V2000
    9.1080   41.7380   30.0750 F   0  0  0  0  0
    9.9720   42.3270   30.9280 C   0  0  0  0  0
   10.3470   43.6140   30.6520 C   0  0  0  0  0
    9.7850   44.1710   29.5170 O   0  0  0  0  0
   10.2010   45.4940   29.1980 C   0  0  0  0  0
    9.3320   45.9850   28.0480 C   0  0  0  0  0
   10.1360   45.5400   26.8400 C   0  0  0  0  0
   11.5180   45.5570   27.2220 O   0  0  0  0  0
   11.6330   45.4950   28.6530 C   0  0  0  0  0
   11.2410   44.2760   31.4940 C   0  0  0  0  0
   11.7300   43.6010   32.6210 C   0  0  0  0  0
   12.6290   44.3560   33.3710 O   0  0  0  0  0
   13.1870   43.6600   34.4920 C   0  0  0  0  0
   14.1920   44.5270   35.2280 C   0  0  0  0  0
   11.3480   42.2770   32.8800 C   0  0  0  0  0
   10.4570   41.6220   32.0350 C   0  0  0  0  0
   10.0230   40.2110   32.3020 C   0  0  0  0  0
    9.2560   40.1290   33.5870 C   0  0  0  0  0
    8.1130   40.6840   33.5850 O   0  0  0  0  0
    9.7280   39.5130   34.6070 O   0  5  0  0  0
   11.2180   39.3530   32.3730 N   0  0  0  0  0
   11.9230   38.9250   31.2570 C   0  0  0  0  0
   11.4990   39.1680   29.9520 C   0  0  0  0  0
   12.2610   38.6980   28.9200 C   0  0  0  0  0
   13.4510   37.9890   29.1110 C   0  0  0  0  0
   14.2220   37.5220   27.9870 C   0  3  0  0  0
   13.7920   37.6600   26.7030 N   0  0  0  0  0
   15.3790   36.8700   28.1410 N   0  0  0  0  0
   13.8740   37.7410   30.4220 C   0  0  0  0  0
   13.1180   38.2170   31.4570 C   0  0  0  0  0
   10.1285   46.1080   30.0957 H   0  0  0  0  0
    9.1453   47.0586   28.0732 H   0  0  0  0  0
    8.3192   45.5824   28.0672 H   0  0  0  0  0
    9.9625   46.2074   25.9959 H   0  0  0  0  0
    9.8364   44.5401   26.5262 H   0  0  0  0  0
   12.1726   44.6009   28.9652 H   0  0  0  0  0
   12.1993   46.3428   29.0385 H   0  0  0  0  0
   11.5531   45.2981   31.2797 H   0  0  0  0  0
   13.6959   42.7667   34.1299 H   0  0  0  0  0
   12.3808   43.4011   35.1784 H   0  0  0  0  0
   14.9998   44.8005   34.5493 H   0  0  0  0  0
   13.6970   45.4290   35.5880 H   0  0  0  0  0
   14.5984   43.9720   36.0735 H   0  0  0  0  0
   11.7516   41.7573   33.7490 H   0  0  0  0  0
    9.3706   39.8750   31.4960 H   0  0  0  0  0
   11.5453   39.0572   33.2927 H   0  0  0  0  0
   10.5797   39.7209   29.7588 H   0  0  0  0  0
   11.9255   38.8845   27.8998 H   0  0  0  0  0
   12.8955   38.1069   26.5106 H   0  0  0  0  0
   14.3662   37.3165   25.9332 H   0  0  0  0  0
   15.7418   36.6891   29.0770 H   0  0  0  0  0
   15.8989   36.5535   27.3225 H   0  0  0  0  0
   14.7882   37.1794   30.6140 H   0  0  0  0  0
   13.4568   38.0396   32.4777 H   0  0  0  0  0
  1  2  1  0  0  0
  2  3  4  0  0  0
  2 16  4  0  0  0
  3  4  1  0  0  0
  3 10  4  0  0  0
  4  5  1  0  0  0
  5  6  1  0  0  0
  5  9  1  0  0  0
  6  7  1  0  0  0
  7  8  1  0  0  0
  8  9  1  0  0  0
 10 11  4  0  0  0
 11 12  1  0  0  0
 11 15  4  0  0  0
 12 13  1  0  0  0
 13 14  1  0  0  0
 15 16  4  0  0  0
 16 17  1  0  0  0
 17 18  1  0  0  0
 17 21  1  0  0  0
 18 19  2  0  0  0
 18 20  1  0  0  0
 21 22  1  0  0  0
 22 23  4  0  0  0
 22 30  4  0  0  0
 23 24  4  0  0  0
 24 25  4  0  0  0
 25 26  1  0  0  0
 25 29  4  0  0  0
 26 27  1  0  0  0
 26 28  1  0  0  0
 29 30  4  0  0  0
  5 31  1  0  0  0
  6 32  1  0  0  0
  6 33  1  0  0  0
  7 34  1  0  0  0
  7 35  1  0  0  0
  9 36  1  0  0  0
  9 37  1  0  0  0
 10 38  1  0  0  0
 13 39  1  0  0  0
 13 40  1  0  0  0
 14 41  1  0  0  0
 14 42  1  0  0  0
 14 43  1  0  0  0
 15 44  1  0  0  0
 17 45  1  0  0  0
 21 46  1  0  0  0
 23 47  1  0  0  0
 24 48  1  0  0  0
 27 49  1  0  0  0
 27 50  1  0  0  0
 28 51  1  0  0  0
 28 52  1  0  0  0
 29 53  1  0  0  0
 30 54  1  0  0  0
M  END
$$$$
