2a5c_ligand
  -I-interpret- 

 32 34  0  0  0  0  0  0  0  0999 V2000
    2.8790    9.8620   22.3510 O   0  0  0  0  0
    1.5740   10.1070   21.8320 C   0  0  0  0  0
    1.2090   11.6040   21.8700 C   0  0  0  0  0
   -0.2650   11.6700   21.9410 C   0  0  0  0  0
   -0.3550   12.9110   21.2600 O   0  0  0  0  0
    1.6310   12.2420   23.0740 O   0  0  0  0  0
    0.5660   12.6000   23.9590 C   0  0  0  0  0
   -0.7060   12.1650   23.2850 C   0  0  0  0  0
    0.7110   12.1260   25.3640 N   0  0  0  0  0
    1.6300   11.3520   25.9410 C   0  0  0  0  0
    2.7730   10.7070   25.3520 N   0  0  0  0  0
    1.3530   11.2090   27.3890 C   0  0  0  0  0
    0.2220   11.9220   27.6410 N   0  0  0  0  0
   -0.0830   12.4370   26.4110 C   0  0  0  0  0
   -1.1210   13.1860   26.2470 O   0  0  0  0  0
    2.2620   10.4010   28.1110 C   0  0  0  0  0
    2.0490   10.2300   29.4430 N   0  0  0  0  0
    3.3360    9.8070   27.4890 N   0  0  0  0  0
    3.5740    9.9730   26.1620 C   0  0  0  0  0
    2.9201   10.1580   23.2633 H   0  0  0  0  0
    0.8554    9.5653   22.4471 H   0  0  0  0  0
    1.5529    9.7774   20.7933 H   0  0  0  0  0
    1.6721   12.0812   21.0064 H   0  0  0  0  0
   -0.7722   10.7505   21.6489 H   0  0  0  0  0
    0.1256   13.5805   21.7523 H   0  0  0  0  0
    0.5709   13.6788   24.1149 H   0  0  0  0  0
   -1.2283   11.3956   23.8536 H   0  0  0  0  0
   -1.4264   12.9791   23.2054 H   0  0  0  0  0
   -0.2736   12.0422   28.5244 H   0  0  0  0  0
    1.2515   10.6787   29.8937 H   0  0  0  0  0
    2.6867    9.6531   29.9915 H   0  0  0  0  0
    4.4511    9.4929   25.7280 H   0  0  0  0  0
  1  2  1  0  0  0
  2  3  1  0  0  0
  3  4  1  0  0  0
  3  6  1  0  0  0
  4  5  1  0  0  0
  4  8  1  0  0  0
  6  7  1  0  0  0
  7  8  1  0  0  0
  7  9  1  0  0  0
  9 10  1  0  0  0
  9 14  1  0  0  0
 10 11  4  0  0  0
 10 12  4  0  0  0
 11 19  4  0  0  0
 12 13  1  0  0  0
 12 16  4  0  0  0
 13 14  1  0  0  0
 14 15  2  0  0  0
 16 17  1  0  0  0
 16 18  4  0  0  0
 18 19  4  0  0  0
  1 20  1  0  0  0
  2 21  1  0  0  0
  2 22  1  0  0  0
  3 23  1  0  0  0
  4 24  1  0  0  0
  5 25  1  0  0  0
  7 26  1  0  0  0
  8 27  1  0  0  0
  8 28  1  0  0  0
 13 29  1  0  0  0
 17 30  1  0  0  0
 17 31  1  0  0  0
 19 32  1  0  0  0
M  END
$$$$
