### 
### Created by X-TOOL on Sun Jun  3 11:49:30 2007
### 

@<TRIPOS>MOLECULE
2a5c_ligand
   32    34     1     0     0
SMALL
GAST_HUCK


@<TRIPOS>ATOM
      1 O19         2.8790    9.8620   22.3510 O.3       1 SUB1       -0.392
      2 C5          1.5740   10.1070   21.8320 C.3       1 SUB1        0.073
      3 C4          1.2090   11.6040   21.8700 C.3       1 SUB1        0.111
      4 C3         -0.2650   11.6700   21.9410 C.3       1 SUB1        0.089
      5 O3         -0.3550   12.9110   21.2600 O.3       1 SUB1       -0.389
      6 O4          1.6310   12.2420   23.0740 O.3       1 SUB1       -0.340
      7 C1          0.5660   12.6000   23.9590 C.3       1 SUB1        0.174
      8 C2         -0.7060   12.1650   23.2850 C.3       1 SUB1        0.030
      9 N9          0.7110   12.1260   25.3640 N.am      1 SUB1       -0.160
     10 C4          1.6300   11.3520   25.9410 C.ar      1 SUB1        0.172
     11 N3          2.7730   10.7070   25.3520 N.ar      1 SUB1       -0.286
     12 C5          1.3530   11.2090   27.3890 C.ar      1 SUB1        0.160
     13 N7          0.2220   11.9220   27.6410 N.am      1 SUB1       -0.213
     14 C8         -0.0830   12.4370   26.4110 C.2       1 SUB1        0.318
     15 O18        -1.1210   13.1860   26.2470 O.2       1 SUB1       -0.394
     16 C6          2.2620   10.4010   28.1110 C.ar      1 SUB1        0.133
     17 N6          2.0490   10.2300   29.4430 N.pl3     1 SUB1       -0.324
     18 N1          3.3360    9.8070   27.4890 N.ar      1 SUB1       -0.289
     19 C2          3.5740    9.9730   26.1620 C.ar      1 SUB1        0.037
     20 H           2.9201   10.1580   23.2633 H         1 SUB1        0.209
     21 H           0.8554    9.5653   22.4471 H         1 SUB1        0.058
     22 H           1.5529    9.7774   20.7933 H         1 SUB1        0.058
     23 H           1.6721   12.0812   21.0064 H         1 SUB1        0.065
     24 H          -0.7722   10.7505   21.6489 H         1 SUB1        0.062
     25 H           0.1256   13.5805   21.7523 H         1 SUB1        0.210
     26 H           0.5709   13.6788   24.1149 H         1 SUB1        0.095
     27 H          -1.2283   11.3956   23.8536 H         1 SUB1        0.034
     28 H          -1.4264   12.9791   23.2054 H         1 SUB1        0.034
     29 H          -0.2736   12.0422   28.5244 H         1 SUB1        0.225
     30 H           1.2515   10.6787   29.8937 H         1 SUB1        0.175
     31 H           2.6867    9.6531   29.9915 H         1 SUB1        0.175
     32 H           4.4511    9.4929   25.7280 H         1 SUB1        0.090
@<TRIPOS>BOND
     1    1    2 1  
     2    2    3 1  
     3    3    4 1  
     4    3    6 1  
     5    4    5 1  
     6    4    8 1  
     7    6    7 1  
     8    7    8 1  
     9    7    9 1  
    10    9   10 1  
    11    9   14 am 
    12   10   11 ar 
    13   10   12 ar 
    14   11   19 ar 
    15   12   13 1  
    16   12   16 ar 
    17   13   14 am 
    18   14   15 2  
    19   16   17 1  
    20   16   18 ar 
    21   18   19 ar 
    22    1   20 1  
    23    2   21 1  
    24    2   22 1  
    25    3   23 1  
    26    4   24 1  
    27    5   25 1  
    28    7   26 1  
    29    8   27 1  
    30    8   28 1  
    31   13   29 1  
    32   17   30 1  
    33   17   31 1  
    34   19   32 1  
@<TRIPOS>SUBSTRUCTURE
     1 SUB1        1 GROUP

