4er2_ligand
  -I-interpret- 

110109  0  0  0  0  0  0  0  0999 V2000
    3.3192   26.5480   18.2206 H   0  0  0  0  0
    3.4195   29.2649   19.3369 H   0  0  0  0  0
    5.5761   27.5198   19.0196 H   0  0  0  0  0
    6.1782   28.2018   17.0103 H   0  0  0  0  0
    7.3275   28.9508   18.1699 H   0  0  0  0  0
    6.0273   29.9427   17.4267 H   0  0  0  0  0
    5.5564   30.0993   20.4875 H   0  0  0  0  0
    6.9839   29.0204   20.3297 H   0  0  0  0  0
    5.4759   28.4092   21.0907 H   0  0  0  0  0
    2.8522   30.6868   17.9898 H   0  0  0  0  0
    2.6992   30.1927   15.0687 H   0  0  0  0  0
    0.7479   31.8033   16.7316 H   0  0  0  0  0
    0.9954   32.6348   14.4551 H   0  0  0  0  0
   -0.5880   31.8029   14.6204 H   0  0  0  0  0
    0.7752   30.9819   13.7873 H   0  0  0  0  0
    0.3788   29.0043   15.5866 H   0  0  0  0  0
   -0.9007   30.0189   16.3349 H   0  0  0  0  0
    0.4883   29.4521   17.3227 H   0  0  0  0  0
    4.3436   36.5321   11.6284 H   0  0  0  0  0
    3.5531   38.2750   13.8114 H   0  0  0  0  0
    4.0277   38.7362   10.8085 H   0  0  0  0  0
    5.2906   38.7952   12.0844 H   0  0  0  0  0
    3.9736   40.0166   12.0673 H   0  0  0  0  0
    2.9853   25.0075   19.0479 H   0  0  0  0  0
    3.6299   24.8499   20.7172 H   0  0  0  0  0
    1.3579   25.3353   21.5804 H   0  0  0  0  0
   -0.5879   25.1509   20.0321 H   0  0  0  0  0
    0.5539   25.1090   18.6461 H   0  0  0  0  0
    0.4609   26.5683   19.6894 H   0  0  0  0  0
    2.0293   22.9683   21.4083 H   0  0  0  0  0
    1.2938   22.8960   19.7711 H   0  0  0  0  0
    0.2623   23.2195   21.2057 H   0  0  0  0  0
    4.4241   31.2735   14.2754 H   0  0  0  0  0
    4.7152   34.1165   15.2816 H   0  0  0  0  0
    7.1273   33.9380   15.1124 H   0  0  0  0  0
    6.9960   32.2838   14.4245 H   0  0  0  0  0
    5.9108   31.5865   16.5695 H   0  0  0  0  0
    7.9606   31.5407   17.9541 H   0  0  0  0  0
    8.7095   32.7939   16.9077 H   0  0  0  0  0
    8.3537   31.1637   16.2424 H   0  0  0  0  0
    5.2903   33.9951   17.4772 H   0  0  0  0  0
    7.0422   34.3601   17.6329 H   0  0  0  0  0
    6.2937   33.0931   18.6631 H   0  0  0  0  0
    5.8083   34.6741   13.1466 H   0  0  0  0  0
    5.6185   33.0488   11.4632 H   0  0  0  0  0
    2.9920   33.5043   13.1564 H   0  0  0  0  0
    3.7084   34.0793   11.6128 H   0  0  0  0  0
    1.2493   37.2652   13.8323 H   0  0  0  0  0
   -0.7468   38.4818   12.0971 H   0  0  0  0  0
   -2.2148   36.8292   12.6196 H   0  0  0  0  0
   -1.3505   36.3812   14.1293 H   0  0  0  0  0
    0.5313   35.5259   12.6771 H   0  0  0  0  0
   -0.6242   33.4442   12.0449 H   0  0  0  0  0
   -2.2119   34.2572   12.2566 H   0  0  0  0  0
   -1.1362   34.0047   13.6729 H   0  0  0  0  0
   -0.0881   36.8179   10.5618 H   0  0  0  0  0
   -1.6037   35.8625   10.4320 H   0  0  0  0  0
   -0.0119   35.0518   10.2429 H   0  0  0  0  0
   -2.1256   39.0438   14.0254 H   0  0  0  0  0
   -1.1359   38.9343   16.1163 H   0  0  0  0  0
   -0.6450   40.7436   13.1115 H   0  0  0  0  0
    0.6776   40.1943   14.1958 H   0  0  0  0  0
    2.8600   25.3270   20.0930 C   0  0  0  0  0
    1.4840   24.8890   20.5830 C   0  0  0  0  0
    0.4020   25.4700   19.6740 C   0  0  0  0  0
    1.2510   23.3880   20.7540 C   0  0  0  0  0
    3.0270   26.8360   20.1710 C   0  0  0  0  0
    2.8980   27.5360   21.1540 O   0  0  0  0  0
    3.3910   27.2130   18.9640 N   0  0  0  0  0
    3.8960   28.5530   18.6470 C   0  0  0  0  0
    3.4620   28.9640   17.2340 C   0  0  0  0  0
    3.4300   28.0840   16.3520 O   0  0  0  0  0
    5.3810   28.5990   18.9350 C   0  0  0  0  0
    6.2870   28.9460   17.8130 C   0  0  0  0  0
    5.8850   29.0650   20.3080 C   0  0  0  0  0
    2.9420   30.1740   17.1360 N   0  0  0  0  0
    2.4810   30.8530   15.9210 C   0  0  0  0  0
    3.2560   32.1250   15.7040 C   0  0  0  0  0
    2.9260   33.0720   16.4570 O   0  0  0  0  0
    0.9600   31.0600   15.9490 C   0  0  0  0  0
    0.5030   31.6630   14.6070 C   0  0  0  0  0
    0.1760   29.7940   16.3250 C   0  0  0  0  0
    4.2550   32.0950   14.8200 N   0  0  0  0  0
    5.1250   33.3130   14.6520 C   0  0  0  0  0
    6.5480   33.0030   15.1260 C   0  0  0  0  0
    6.6250   32.4210   16.5110 C   0  0  0  0  0
    8.0080   31.9470   16.9330 C   0  0  0  0  0
    6.2840   33.5640   17.6690 C   0  0  0  0  0
    5.1420   33.8020   13.2200 C   0  0  0  0  0
    5.6070   32.7440   12.3630 O   0  0  0  0  0
    3.7370   34.1780   12.7080 C   0  0  0  0  0
    3.4140   35.6300   13.0990 C   0  0  0  0  0
    2.8250   35.7090   14.1540 O   0  0  0  0  0
    3.7630   36.6750   12.4300 N   0  0  0  0  0
    3.3790   38.0640   12.7460 C   0  0  0  0  0
    1.9250   38.3230   12.3910 C   0  0  0  0  0
    1.7580   38.9230   11.3560 O   0  0  0  0  0
    4.2260   38.9650   11.8660 C   0  0  0  0  0
    0.9420   37.8620   13.0910 N   0  0  0  0  0
   -0.5050   38.0040   13.0580 C   0  0  0  0  0
   -1.2260   36.6870   13.0800 C   0  0  0  0  0
   -0.5150   35.5650   12.3400 C   0  0  0  0  0
   -1.1660   34.2270   12.5960 C   0  0  0  0  0
   -0.5580   35.8460   10.7730 C   0  0  0  0  0
   -1.0400   38.9330   14.1640 C   0  0  0  0  0
   -0.8030   38.3550   15.4410 O   0  0  0  0  0
   -0.4120   40.3050   14.0930 C   0  0  0  0  0
   -0.9000   41.2520   15.1680 C   0  0  0  0  0
   -0.7080   41.0620   16.3770 O   0  0  0  0  0
   -1.5070   42.3400   14.7190 O   0  5  0  0  0
 69  1  1  0  0  0
 70  2  1  0  0  0
 73  3  1  0  0  0
 74  4  1  0  0  0
 74  5  1  0  0  0
 74  6  1  0  0  0
 75  7  1  0  0  0
 75  8  1  0  0  0
 75  9  1  0  0  0
 76 10  1  0  0  0
 77 11  1  0  0  0
 80 12  1  0  0  0
 81 13  1  0  0  0
 81 14  1  0  0  0
 81 15  1  0  0  0
 82 16  1  0  0  0
 82 17  1  0  0  0
 82 18  1  0  0  0
 94 19  1  0  0  0
 95 20  1  0  0  0
 98 21  1  0  0  0
 98 22  1  0  0  0
 98 23  1  0  0  0
 63 24  1  0  0  0
 63 25  1  0  0  0
 64 26  1  0  0  0
 65 27  1  0  0  0
 65 28  1  0  0  0
 65 29  1  0  0  0
 66 30  1  0  0  0
 66 31  1  0  0  0
 66 32  1  0  0  0
 83 33  1  0  0  0
 84 34  1  0  0  0
 85 35  1  0  0  0
 85 36  1  0  0  0
 86 37  1  0  0  0
 87 38  1  0  0  0
 87 39  1  0  0  0
 87 40  1  0  0  0
 88 41  1  0  0  0
 88 42  1  0  0  0
 88 43  1  0  0  0
 89 44  1  0  0  0
 90 45  1  0  0  0
 91 46  1  0  0  0
 91 47  1  0  0  0
 99 48  1  0  0  0
100 49  1  0  0  0
101 50  1  0  0  0
101 51  1  0  0  0
102 52  1  0  0  0
103 53  1  0  0  0
103 54  1  0  0  0
103 55  1  0  0  0
104 56  1  0  0  0
104 57  1  0  0  0
104 58  1  0  0  0
105 59  1  0  0  0
106 60  1  0  0  0
107 61  1  0  0  0
107 62  1  0  0  0
 70 69  1  0  0  0
 70 73  1  0  0  0
 71 70  1  0  0  0
 71 72  2  0  0  0
 73 75  1  0  0  0
 73 74  1  0  0  0
 77 76  1  0  0  0
 77 80  1  0  0  0
 78 77  1  0  0  0
 78 79  2  0  0  0
 80 82  1  0  0  0
 80 81  1  0  0  0
 76 71  1  0  0  0
 95 94  1  0  0  0
 95 98  1  0  0  0
 96 95  1  0  0  0
 96 97  2  0  0  0
 63 64  1  0  0  0
 67 63  1  0  0  0
 64 65  1  0  0  0
 64 66  1  0  0  0
 67 68  2  0  0  0
 69 67  1  0  0  0
 83 78  1  0  0  0
 84 83  1  0  0  0
 84 85  1  0  0  0
 89 84  1  0  0  0
 85 86  1  0  0  0
 86 87  1  0  0  0
 86 88  1  0  0  0
 89 90  1  0  0  0
 91 89  1  0  0  0
 92 91  1  0  0  0
 92 93  2  0  0  0
 94 92  1  0  0  0
 99 96  1  0  0  0
100 99  1  0  0  0
100101  1  0  0  0
105100  1  0  0  0
101102  1  0  0  0
102103  1  0  0  0
102104  1  0  0  0
105106  1  0  0  0
105107  1  0  0  0
107108  1  0  0  0
108109  2  0  0  0
108110  1  0  0  0
M  END
$$$$
