### 
### Created by X-TOOL on Mon Oct 24 23:43:55 2005
### 

@<TRIPOS>MOLECULE
4er2_ligand
  110   109     1     0     0
SMALL
GAST_HUCK


@<TRIPOS>ATOM
      1 H691        3.3192   26.5480   18.2206 H         1 SUB1        0.188
      2 H701        3.4195   29.2649   19.3369 H         1 SUB1        0.080
      3 H731        5.5761   27.5198   19.0196 H         1 SUB1        0.034
      4 H741        6.1782   28.2018   17.0103 H         1 SUB1        0.023
      5 H742        7.3275   28.9508   18.1699 H         1 SUB1        0.023
      6 H743        6.0273   29.9427   17.4267 H         1 SUB1        0.023
      7 H751        5.5564   30.0993   20.4875 H         1 SUB1        0.023
      8 H752        6.9839   29.0204   20.3297 H         1 SUB1        0.023
      9 H753        5.4759   28.4092   21.0907 H         1 SUB1        0.023
     10 H761        2.8522   30.6868   17.9898 H         1 SUB1        0.188
     11 H771        2.6992   30.1927   15.0687 H         1 SUB1        0.080
     12 H801        0.7479   31.8033   16.7316 H         1 SUB1        0.034
     13 H811        0.9954   32.6348   14.4551 H         1 SUB1        0.023
     14 H812       -0.5880   31.8029   14.6204 H         1 SUB1        0.023
     15 H813        0.7752   30.9819   13.7873 H         1 SUB1        0.023
     16 H821        0.3788   29.0043   15.5866 H         1 SUB1        0.023
     17 H822       -0.9007   30.0189   16.3349 H         1 SUB1        0.023
     18 H823        0.4883   29.4521   17.3227 H         1 SUB1        0.023
     19 H941        4.3436   36.5321   11.6284 H         1 SUB1        0.188
     20 H951        3.5531   38.2750   13.8114 H         1 SUB1        0.080
     21 H981        4.0277   38.7362   10.8085 H         1 SUB1        0.028
     22 H982        5.2906   38.7952   12.0844 H         1 SUB1        0.028
     23 H983        3.9736   40.0166   12.0673 H         1 SUB1        0.028
     24 H631        2.9853   25.0075   19.0479 H         1 SUB1        0.051
     25 H632        3.6299   24.8499   20.7172 H         1 SUB1        0.051
     26 H641        1.3579   25.3353   21.5804 H         1 SUB1        0.032
     27 H651       -0.5879   25.1509   20.0321 H         1 SUB1        0.023
     28 H652        0.5539   25.1090   18.6461 H         1 SUB1        0.023
     29 H653        0.4609   26.5683   19.6894 H         1 SUB1        0.023
     30 H661        2.0293   22.9683   21.4083 H         1 SUB1        0.023
     31 H662        1.2938   22.8960   19.7711 H         1 SUB1        0.023
     32 H663        0.2623   23.2195   21.2057 H         1 SUB1        0.023
     33 H831        4.4241   31.2735   14.2754 H         1 SUB1        0.186
     34 H841        4.7152   34.1165   15.2816 H         1 SUB1        0.058
     35 H851        7.1273   33.9380   15.1124 H         1 SUB1        0.029
     36 H852        6.9960   32.2838   14.4245 H         1 SUB1        0.029
     37 H861        5.9108   31.5865   16.5695 H         1 SUB1        0.030
     38 H871        7.9606   31.5407   17.9541 H         1 SUB1        0.023
     39 H872        8.7095   32.7939   16.9077 H         1 SUB1        0.023
     40 H873        8.3537   31.1637   16.2424 H         1 SUB1        0.023
     41 H881        5.2903   33.9951   17.4772 H         1 SUB1        0.023
     42 H882        7.0422   34.3601   17.6329 H         1 SUB1        0.023
     43 H883        6.2937   33.0931   18.6631 H         1 SUB1        0.023
     44 H891        5.8083   34.6741   13.1466 H         1 SUB1        0.064
     45 H901        5.6185   33.0488   11.4632 H         1 SUB1        0.210
     46 H911        2.9920   33.5043   13.1564 H         1 SUB1        0.053
     47 H912        3.7084   34.0793   11.6128 H         1 SUB1        0.053
     48 H991        1.2493   37.2652   13.8323 H         1 SUB1        0.186
     49 H1001      -0.7468   38.4818   12.0971 H         1 SUB1        0.058
     50 H1011      -2.2148   36.8292   12.6196 H         1 SUB1        0.029
     51 H1012      -1.3505   36.3812   14.1293 H         1 SUB1        0.029
     52 H1021       0.5313   35.5259   12.6771 H         1 SUB1        0.030
     53 H1031      -0.6242   33.4442   12.0449 H         1 SUB1        0.023
     54 H1032      -2.2119   34.2572   12.2566 H         1 SUB1        0.023
     55 H1033      -1.1362   34.0047   13.6729 H         1 SUB1        0.023
     56 H1041      -0.0881   36.8179   10.5618 H         1 SUB1        0.023
     57 H1042      -1.6037   35.8625   10.4320 H         1 SUB1        0.023
     58 H1043      -0.0119   35.0518   10.2429 H         1 SUB1        0.023
     59 H1051      -2.1256   39.0438   14.0254 H         1 SUB1        0.065
     60 H1061      -1.1359   38.9343   16.1163 H         1 SUB1        0.210
     61 H1071      -0.6450   40.7436   13.1115 H         1 SUB1        0.051
     62 H1072       0.6776   40.1943   14.1958 H         1 SUB1        0.051
     63 CA          2.8600   25.3270   20.0930 C.3       1 SUB1        0.040
     64 CB          1.4840   24.8890   20.5830 C.3       1 SUB1       -0.030
     65 CG1         0.4020   25.4700   19.6740 C.3       1 SUB1       -0.061
     66 CG2         1.2510   23.3880   20.7540 C.3       1 SUB1       -0.061
     67 C           3.0270   26.8360   20.1710 C.2       1 SUB1        0.178
     68 O           2.8980   27.5360   21.1540 O.2       1 SUB1       -0.397
     69 N           3.3910   27.2130   18.9640 N.am      1 SUB1       -0.265
     70 CA          3.8960   28.5530   18.6470 C.3       1 SUB1        0.133
     71 C           3.4620   28.9640   17.2340 C.2       1 SUB1        0.204
     72 O           3.4300   28.0840   16.3520 O.2       1 SUB1       -0.394
     73 CB          5.3810   28.5990   18.9350 C.3       1 SUB1       -0.006
     74 CG1         6.2870   28.9460   17.8130 C.3       1 SUB1       -0.058
     75 CG2         5.8850   29.0650   20.3080 C.3       1 SUB1       -0.058
     76 N           2.9420   30.1740   17.1360 N.am      1 SUB1       -0.264
     77 CA          2.4810   30.8530   15.9210 C.3       1 SUB1        0.133
     78 C           3.2560   32.1250   15.7040 C.2       1 SUB1        0.202
     79 O           2.9260   33.0720   16.4570 O.2       1 SUB1       -0.394
     80 CB          0.9600   31.0600   15.9490 C.3       1 SUB1       -0.006
     81 CG1         0.5030   31.6630   14.6070 C.3       1 SUB1       -0.058
     82 CG2         0.1760   29.7940   16.3250 C.3       1 SUB1       -0.058
     83 N           4.2550   32.0950   14.8200 N.am      1 SUB1       -0.279
     84 CA          5.1250   33.3130   14.6520 C.3       1 SUB1        0.070
     85 CB          6.5480   33.0030   15.1260 C.3       1 SUB1       -0.025
     86 CG          6.6250   32.4210   16.5110 C.3       1 SUB1       -0.045
     87 CD1         8.0080   31.9470   16.9330 C.3       1 SUB1       -0.063
     88 CD2         6.2840   33.5640   17.6690 C.3       1 SUB1       -0.063
     89 CH          5.1420   33.8020   13.2200 C.3       1 SUB1        0.095
     90 OH          5.6070   32.7440   12.3630 O.3       1 SUB1       -0.387
     91 CM          3.7370   34.1780   12.7080 C.3       1 SUB1        0.065
     92 C           3.4140   35.6300   13.0990 C.2       1 SUB1        0.181
     93 O           2.8250   35.7090   14.1540 O.2       1 SUB1       -0.397
     94 N           3.7630   36.6750   12.4300 N.am      1 SUB1       -0.266
     95 CA          3.3790   38.0640   12.7460 C.3       1 SUB1        0.128
     96 C           1.9250   38.3230   12.3910 C.2       1 SUB1        0.202
     97 O           1.7580   38.9230   11.3560 O.2       1 SUB1       -0.394
     98 CB          4.2260   38.9650   11.8660 C.3       1 SUB1       -0.024
     99 N           0.9420   37.8620   13.0910 N.am      1 SUB1       -0.279
    100 CA         -0.5050   38.0040   13.0580 C.3       1 SUB1        0.071
    101 CB         -1.2260   36.6870   13.0800 C.3       1 SUB1       -0.025
    102 CG         -0.5150   35.5650   12.3400 C.3       1 SUB1       -0.045
    103 CD1        -1.1660   34.2270   12.5960 C.3       1 SUB1       -0.063
    104 CD2        -0.5580   35.8460   10.7730 C.3       1 SUB1       -0.063
    105 CH         -1.0400   38.9330   14.1640 C.3       1 SUB1        0.089
    106 OH         -0.8030   38.3550   15.4410 O.3       1 SUB1       -0.386
    107 CM         -0.4120   40.3050   14.0930 C.3       1 SUB1        0.014
    108 C          -0.9000   41.2520   15.1680 C.2       1 SUB1        0.031
    109 O          -0.7080   41.0620   16.3770 O.co2     1 SUB1       -0.567
    110 OXT        -1.5070   42.3400   14.7190 O.co2     1 SUB1       -0.567
@<TRIPOS>BOND
     1   69    1 1  
     2   70    2 1  
     3   73    3 1  
     4   74    4 1  
     5   74    5 1  
     6   74    6 1  
     7   75    7 1  
     8   75    8 1  
     9   75    9 1  
    10   76   10 1  
    11   77   11 1  
    12   80   12 1  
    13   81   13 1  
    14   81   14 1  
    15   81   15 1  
    16   82   16 1  
    17   82   17 1  
    18   82   18 1  
    19   94   19 1  
    20   95   20 1  
    21   98   21 1  
    22   98   22 1  
    23   98   23 1  
    24   63   24 1  
    25   63   25 1  
    26   64   26 1  
    27   65   27 1  
    28   65   28 1  
    29   65   29 1  
    30   66   30 1  
    31   66   31 1  
    32   66   32 1  
    33   83   33 1  
    34   84   34 1  
    35   85   35 1  
    36   85   36 1  
    37   86   37 1  
    38   87   38 1  
    39   87   39 1  
    40   87   40 1  
    41   88   41 1  
    42   88   42 1  
    43   88   43 1  
    44   89   44 1  
    45   90   45 1  
    46   91   46 1  
    47   91   47 1  
    48   99   48 1  
    49  100   49 1  
    50  101   50 1  
    51  101   51 1  
    52  102   52 1  
    53  103   53 1  
    54  103   54 1  
    55  103   55 1  
    56  104   56 1  
    57  104   57 1  
    58  104   58 1  
    59  105   59 1  
    60  106   60 1  
    61  107   61 1  
    62  107   62 1  
    63   70   69 1  
    64   70   73 1  
    65   71   70 1  
    66   71   72 2  
    67   73   75 1  
    68   73   74 1  
    69   77   76 1  
    70   77   80 1  
    71   78   77 1  
    72   78   79 2  
    73   80   82 1  
    74   80   81 1  
    75   76   71 am 
    76   95   94 1  
    77   95   98 1  
    78   96   95 1  
    79   96   97 2  
    80   63   64 1  
    81   67   63 1  
    82   64   65 1  
    83   64   66 1  
    84   67   68 2  
    85   69   67 am 
    86   83   78 am 
    87   84   83 1  
    88   84   85 1  
    89   89   84 1  
    90   85   86 1  
    91   86   87 1  
    92   86   88 1  
    93   89   90 1  
    94   91   89 1  
    95   92   91 1  
    96   92   93 2  
    97   94   92 am 
    98   99   96 am 
    99  100   99 1  
   100  100  101 1  
   101  105  100 1  
   102  101  102 1  
   103  102  103 1  
   104  102  104 1  
   105  105  106 1  
   106  105  107 1  
   107  107  108 1  
   108  108  109 2  
   109  108  110 2  
@<TRIPOS>SUBSTRUCTURE
     1 SUB1        1 GROUP

