1lnm_ligand
  -I-interpret- 

 61 65  0  0  0  0  0  0  0  0999 V2000
   14.7810  -21.2920   37.1060 O   0  0  0  0  0
   14.0400  -22.2080   37.0350 C   0  0  0  0  0
   12.9040  -22.5250   36.1640 C   0  0  0  0  0
   14.2300  -23.2610   37.9230 O   0  0  0  0  0
   13.2240  -24.2650   37.6620 C   0  0  0  0  0
   12.4200  -23.7400   36.5320 C   0  0  0  0  0
   11.2030  -24.5070   36.1160 C   0  0  0  0  0
   11.5560  -26.0430   36.1120 C   0  0  0  0  0
    9.9670  -24.3170   36.9940 C   0  0  0  0  0
    8.7370  -24.1550   36.0510 C   0  0  0  0  0
    7.3760  -24.3510   36.7060 C   0  0  0  0  0
   10.0700  -23.1180   37.9310 C   0  0  0  0  0
    9.7900  -25.7260   37.6820 C   0  0  0  0  0
   10.2620  -26.6830   36.6120 C   0  0  0  0  0
   10.8260  -25.8640   38.7020 O   0  0  0  0  0
    8.4190  -25.9590   38.3610 C   0  0  0  0  0
    8.3930  -27.3110   39.0790 C   0  0  0  0  0
    7.2220  -25.7460   37.3730 C   0  0  0  0  0
    5.8660  -25.9760   38.1060 C   0  0  0  0  0
    4.7060  -25.8560   37.0780 C   0  0  0  0  0
    5.5120  -24.8810   39.1660 C   0  0  0  0  0
    5.8640  -27.3860   38.6570 C   0  0  0  0  0
    7.0040  -27.6710   39.6460 C   0  0  0  0  0
    5.9350  -28.4260   37.5280 C   0  0  0  0  0
    4.8350  -28.2580   36.4950 C   0  0  0  0  0
    4.8600  -26.8500   35.9340 C   0  0  0  0  0
    3.5550  -28.4830   37.1580 O   0  0  0  0  0
   12.5164  -21.8971   35.3631 H   0  0  0  0  0
   13.6904  -25.2194   37.3767 H   0  0  0  0  0
   12.5806  -24.4104   38.5422 H   0  0  0  0  0
   10.9295  -24.1875   35.0996 H   0  0  0  0  0
   11.7971  -26.3984   35.0994 H   0  0  0  0  0
   12.3877  -26.2671   36.7960 H   0  0  0  0  0
    8.7553  -23.1385   35.6311 H   0  0  0  0  0
    8.8215  -24.8963   35.2427 H   0  0  0  0  0
    7.2396  -23.5850   37.4836 H   0  0  0  0  0
    6.5928  -24.2516   35.9401 H   0  0  0  0  0
   10.1896  -22.2038   37.3310 H   0  0  0  0  0
    9.1539  -23.0333   38.5339 H   0  0  0  0  0
   10.9435  -23.2308   38.5899 H   0  0  0  0  0
    9.5157  -26.7567   35.8073 H   0  0  0  0  0
   10.4486  -27.6778   37.0427 H   0  0  0  0  0
   10.6247  -25.2945   39.4353 H   0  0  0  0  0
    8.3032  -25.1845   39.1334 H   0  0  0  0  0
    8.6829  -28.0980   38.3673 H   0  0  0  0  0
    9.1044  -27.2829   39.9174 H   0  0  0  0  0
    7.2783  -26.5066   36.5804 H   0  0  0  0  0
    3.7504  -26.0572   37.5842 H   0  0  0  0  0
    4.6998  -24.8407   36.6550 H   0  0  0  0  0
    6.2819  -24.8810   39.9517 H   0  0  0  0  0
    5.4877  -23.8905   38.6883 H   0  0  0  0  0
    4.5354  -25.1017   39.6215 H   0  0  0  0  0
    4.9099  -27.5337   39.1841 H   0  0  0  0  0
    6.9837  -28.7436   39.8890 H   0  0  0  0  0
    6.8233  -27.0772   40.5541 H   0  0  0  0  0
    6.9021  -28.3284   37.0131 H   0  0  0  0  0
    5.8415  -29.4320   37.9630 H   0  0  0  0  0
    4.9590  -28.9902   35.6835 H   0  0  0  0  0
    4.0297  -26.7337   35.2220 H   0  0  0  0  0
    5.8193  -26.6860   35.4215 H   0  0  0  0  0
    3.5335  -29.3644   37.5118 H   0  0  0  0  0
  1  2  2  0  0  0
  2  3  1  0  0  0
  2  4  1  0  0  0
  3  6  2  0  0  0
  4  5  1  0  0  0
  5  6  1  0  0  0
  6  7  1  0  0  0
  7  8  1  0  0  0
  7  9  1  0  0  0
  8 14  1  0  0  0
  9 10  1  0  0  0
  9 12  1  0  0  0
  9 13  1  0  0  0
 10 11  1  0  0  0
 11 18  1  0  0  0
 13 14  1  0  0  0
 13 15  1  0  0  0
 13 16  1  0  0  0
 16 17  1  0  0  0
 16 18  1  0  0  0
 17 23  1  0  0  0
 18 19  1  0  0  0
 19 20  1  0  0  0
 19 21  1  0  0  0
 19 22  1  0  0  0
 20 26  1  0  0  0
 22 23  1  0  0  0
 22 24  1  0  0  0
 24 25  1  0  0  0
 25 26  1  0  0  0
 25 27  1  0  0  0
  3 28  1  0  0  0
  5 29  1  0  0  0
  5 30  1  0  0  0
  7 31  1  0  0  0
  8 32  1  0  0  0
  8 33  1  0  0  0
 10 34  1  0  0  0
 10 35  1  0  0  0
 11 36  1  0  0  0
 11 37  1  0  0  0
 12 38  1  0  0  0
 12 39  1  0  0  0
 12 40  1  0  0  0
 14 41  1  0  0  0
 14 42  1  0  0  0
 15 43  1  0  0  0
 16 44  1  0  0  0
 17 45  1  0  0  0
 17 46  1  0  0  0
 18 47  1  0  0  0
 20 48  1  0  0  0
 20 49  1  0  0  0
 21 50  1  0  0  0
 21 51  1  0  0  0
 21 52  1  0  0  0
 22 53  1  0  0  0
 23 54  1  0  0  0
 23 55  1  0  0  0
 24 56  1  0  0  0
 24 57  1  0  0  0
 25 58  1  0  0  0
 26 59  1  0  0  0
 26 60  1  0  0  0
 27 61  1  0  0  0
M  END
$$$$
