### 
### Created by X-TOOL on Mon Oct 24 23:09:06 2005
### 

@<TRIPOS>MOLECULE
1lnm_ligand
   61    65     1     0     0
SMALL
GAST_HUCK


@<TRIPOS>ATOM
      1 O23        14.7810  -21.2920   37.1060 O.2       1 SUB1       -0.387
      2 C23        14.0400  -22.2080   37.0350 C.2       1 SUB1        0.219
      3 C22        12.9040  -22.5250   36.1640 C.2       1 SUB1        0.002
      4 O21        14.2300  -23.2610   37.9230 O.3       1 SUB1       -0.266
      5 C21        13.2240  -24.2650   37.6620 C.3       1 SUB1        0.120
      6 C20        12.4200  -23.7400   36.5320 C.2       1 SUB1       -0.006
      7 C17        11.2030  -24.5070   36.1160 C.3       1 SUB1        0.015
      8 C16        11.5560  -26.0430   36.1120 C.3       1 SUB1       -0.032
      9 C13         9.9670  -24.3170   36.9940 C.3       1 SUB1        0.015
     10 C12         8.7370  -24.1550   36.0510 C.3       1 SUB1       -0.042
     11 C11         7.3760  -24.3510   36.7060 C.3       1 SUB1       -0.049
     12 C18        10.0700  -23.1180   37.9310 C.3       1 SUB1       -0.054
     13 C14         9.7900  -25.7260   37.6820 C.3       1 SUB1        0.078
     14 C15        10.2620  -26.6830   36.6120 C.3       1 SUB1       -0.020
     15 O14        10.8260  -25.8640   38.7020 O.3       1 SUB1       -0.387
     16 C8          8.4190  -25.9590   38.3610 C.3       1 SUB1       -0.008
     17 C7          8.3930  -27.3110   39.0790 C.3       1 SUB1       -0.047
     18 C9          7.2220  -25.7460   37.3730 C.3       1 SUB1       -0.030
     19 C10         5.8660  -25.9760   38.1060 C.3       1 SUB1       -0.026
     20 C1          4.7060  -25.8560   37.0780 C.3       1 SUB1       -0.045
     21 C19         5.5120  -24.8810   39.1660 C.3       1 SUB1       -0.059
     22 C5          5.8640  -27.3860   38.6570 C.3       1 SUB1       -0.033
     23 C6          7.0040  -27.6710   39.6460 C.3       1 SUB1       -0.049
     24 C4          5.9350  -28.4260   37.5280 C.3       1 SUB1       -0.023
     25 C3          4.8350  -28.2580   36.4950 C.3       1 SUB1        0.056
     26 C2          4.8600  -26.8500   35.9340 C.3       1 SUB1       -0.026
     27 O32         3.5550  -28.4830   37.1580 O.3       1 SUB1       -0.392
     28 H31        12.5164  -21.8971   35.3631 H         1 SUB1        0.030
     29 H51        13.6904  -25.2194   37.3767 H         1 SUB1        0.086
     30 H52        12.5806  -24.4104   38.5422 H         1 SUB1        0.086
     31 H71        10.9295  -24.1875   35.0996 H         1 SUB1        0.055
     32 H81        11.7971  -26.3984   35.0994 H         1 SUB1        0.030
     33 H82        12.3877  -26.2671   36.7960 H         1 SUB1        0.030
     34 H101        8.7553  -23.1385   35.6311 H         1 SUB1        0.027
     35 H102        8.8215  -24.8963   35.2427 H         1 SUB1        0.027
     36 H111        7.2396  -23.5850   37.4836 H         1 SUB1        0.027
     37 H112        6.5928  -24.2516   35.9401 H         1 SUB1        0.027
     38 H121       10.1896  -22.2038   37.3310 H         1 SUB1        0.024
     39 H122        9.1539  -23.0333   38.5339 H         1 SUB1        0.024
     40 H123       10.9435  -23.2308   38.5899 H         1 SUB1        0.024
     41 H141        9.5157  -26.7567   35.8073 H         1 SUB1        0.030
     42 H142       10.4486  -27.6778   37.0427 H         1 SUB1        0.030
     43 H151       10.6247  -25.2945   39.4353 H         1 SUB1        0.210
     44 H161        8.3032  -25.1845   39.1334 H         1 SUB1        0.033
     45 H171        8.6829  -28.0980   38.3673 H         1 SUB1        0.027
     46 H172        9.1044  -27.2829   39.9174 H         1 SUB1        0.027
     47 H181        7.2783  -26.5066   36.5804 H         1 SUB1        0.031
     48 H201        3.7504  -26.0572   37.5842 H         1 SUB1        0.027
     49 H202        4.6998  -24.8407   36.6550 H         1 SUB1        0.027
     50 H211        6.2819  -24.8810   39.9517 H         1 SUB1        0.023
     51 H212        5.4877  -23.8905   38.6883 H         1 SUB1        0.023
     52 H213        4.5354  -25.1017   39.6215 H         1 SUB1        0.023
     53 H221        4.9099  -27.5337   39.1841 H         1 SUB1        0.031
     54 H231        6.9837  -28.7436   39.8890 H         1 SUB1        0.027
     55 H232        6.8233  -27.0772   40.5541 H         1 SUB1        0.027
     56 H241        6.9021  -28.3284   37.0131 H         1 SUB1        0.029
     57 H242        5.8415  -29.4320   37.9630 H         1 SUB1        0.029
     58 H251        4.9590  -28.9902   35.6835 H         1 SUB1        0.059
     59 H261        4.0297  -26.7337   35.2220 H         1 SUB1        0.029
     60 H262        5.8193  -26.6860   35.4215 H         1 SUB1        0.029
     61 H271        3.5335  -29.3644   37.5118 H         1 SUB1        0.210
@<TRIPOS>BOND
     1    1    2 2  
     2    2    3 1  
     3    2    4 1  
     4    3    6 2  
     5    4    5 1  
     6    5    6 1  
     7    6    7 1  
     8    7    8 1  
     9    7    9 1  
    10    8   14 1  
    11    9   10 1  
    12    9   12 1  
    13    9   13 1  
    14   10   11 1  
    15   11   18 1  
    16   13   14 1  
    17   13   15 1  
    18   13   16 1  
    19   16   17 1  
    20   16   18 1  
    21   17   23 1  
    22   18   19 1  
    23   19   20 1  
    24   19   21 1  
    25   19   22 1  
    26   20   26 1  
    27   22   23 1  
    28   22   24 1  
    29   24   25 1  
    30   25   26 1  
    31   25   27 1  
    32    3   28 1  
    33    5   29 1  
    34    5   30 1  
    35    7   31 1  
    36    8   32 1  
    37    8   33 1  
    38   10   34 1  
    39   10   35 1  
    40   11   36 1  
    41   11   37 1  
    42   12   38 1  
    43   12   39 1  
    44   12   40 1  
    45   14   41 1  
    46   14   42 1  
    47   15   43 1  
    48   16   44 1  
    49   17   45 1  
    50   17   46 1  
    51   18   47 1  
    52   20   48 1  
    53   20   49 1  
    54   21   50 1  
    55   21   51 1  
    56   21   52 1  
    57   22   53 1  
    58   23   54 1  
    59   23   55 1  
    60   24   56 1  
    61   24   57 1  
    62   25   58 1  
    63   26   59 1  
    64   26   60 1  
    65   27   61 1  
@<TRIPOS>SUBSTRUCTURE
     1 SUB1        1 GROUP

