### 
### Created by X-TOOL on Mon Oct 24 22:41:33 2005
### 

@<TRIPOS>MOLECULE
1f0t_ligand
   50    53     1     0     0
SMALL
GAST_HUCK


@<TRIPOS>ATOM
      1 H111       14.4512   -2.9514   25.7969 H         1 SUB1        0.058
      2 H121       15.1283   -3.1852   23.4332 H         1 SUB1        0.052
      3 H151       10.6968   -4.8252   24.8729 H         1 SUB1        0.057
      4 H181       10.4663   -3.8380   28.3565 H         1 SUB1        0.192
      5 H182       10.0859   -4.2572   26.6647 H         1 SUB1        0.192
      6 H191       13.8881   -3.0989   27.7173 H         1 SUB1        0.192
      7 H192       12.5953   -3.1845   28.9437 H         1 SUB1        0.192
      8 H201       11.2835   -4.9243   21.2107 H         1 SUB1        0.066
      9 H202       10.0283   -4.9671   22.4950 H         1 SUB1        0.066
     10 H211       12.9915   -4.6759   21.0522 H         1 SUB1        0.246
     11 C1         13.7720   -3.4110   25.0880 C.ar      1 SUB1       -0.023
     12 C2         14.1560   -3.5440   23.7510 C.ar      1 SUB1       -0.035
     13 C3         13.3000   -4.1340   22.8220 C.ar      1 SUB1        0.091
     14 C4         12.0440   -4.6010   23.2210 C.ar      1 SUB1        0.013
     15 C5         11.6700   -4.4620   24.5630 C.ar      1 SUB1       -0.012
     16 C6         12.5100   -3.8680   25.5270 C.ar      1 SUB1        0.168
     17 C10        12.0420   -3.6980   27.0270 C.cat     1 SUB1        0.308
     18 N11        10.7640   -3.9510   27.3770 N.pl3     1 SUB1       -0.201
     19 N12        12.9090   -3.2960   27.9690 N.pl3     1 SUB1       -0.201
     20 C13        11.0480   -5.2790   22.2250 C.3       1 SUB1        0.066
     21 O44        13.6830   -4.2570   21.5510 O.3       1 SUB1       -0.337
     22 C16        12.8720  -13.0390   24.1350 C.ar      1 SUB1        0.066
     23 C17        13.8970  -13.4940   24.9520 C.ar      1 SUB1       -0.031
     24 C18        15.0640  -14.0690   24.4210 C.ar      1 SUB1       -0.043
     25 C19        15.2430  -14.2110   23.0270 C.ar      1 SUB1       -0.002
     26 N20        14.2890  -13.7930   22.1540 N.ar      1 SUB1       -0.309
     27 C21        13.0650  -13.1940   22.6230 C.ar      1 SUB1        0.044
     28 C25        11.9690  -12.6880   21.9200 C.2       1 SUB1       -0.016
     29 C26        10.9670  -12.1590   22.8150 C.2       1 SUB1        0.174
     30 S27        11.3720  -12.2880   24.4850 S.3       1 SUB1        0.004
     31 N28        11.0900   -6.7510   22.2170 N.am      1 SUB1       -0.262
     32 C29        10.0010   -7.5520   22.3190 C.2       1 SUB1        0.202
     33 C30        10.4840   -8.9760   22.3110 C.3       1 SUB1        0.129
     34 C31        11.7780   -8.8860   21.5170 C.3       1 SUB1        0.005
     35 C32        12.3140   -7.5010   21.8510 C.3       1 SUB1        0.040
     36 N37         9.8950  -10.0120   21.5570 N.am      1 SUB1       -0.223
     37 S38         9.4800  -11.4170   22.2470 S.o2      1 SUB1        0.086
     38 O39         8.6800  -11.0280   23.3660 O.2       1 SUB1       -0.147
     39 O40         8.9380  -12.1760   21.1670 O.2       1 SUB1       -0.147
     40 O41         8.8430   -7.1990   22.3950 O.2       1 SUB1       -0.395
     41 H231       13.7949  -13.4036   26.0274 H         1 SUB1        0.069
     42 H241       15.8421  -14.4103   25.0942 H         1 SUB1        0.065
     43 H251       16.1542  -14.6597   22.6482 H         1 SUB1        0.077
     44 H281       11.8814  -12.6920   20.8345 H         1 SUB1        0.047
     45 H331       10.6136   -9.3066   23.3521 H         1 SUB1        0.075
     46 H341       11.5834   -8.9811   20.4386 H         1 SUB1        0.033
     47 H342       12.4861   -9.6666   21.8321 H         1 SUB1        0.033
     48 H351       13.0194   -7.5425   22.6940 H         1 SUB1        0.053
     49 H352       12.8099   -7.0481   20.9798 H         1 SUB1        0.053
     50 H361        9.7309   -9.8767   20.5799 H         1 SUB1        0.171
@<TRIPOS>BOND
     1   11    1 1  
     2   12    2 1  
     3   15    3 1  
     4   18    4 1  
     5   18    5 1  
     6   19    6 1  
     7   19    7 1  
     8   20    8 1  
     9   16   11 ar 
    10   11   12 ar 
    11   12   13 ar 
    12   13   21 1  
    13   14   13 ar 
    14   14   20 1  
    15   15   14 ar 
    16   16   15 ar 
    17   17   16 1  
    18   17   19 1  
    19   17   18 1  
    20   20   31 1  
    21   31   35 1  
    22   31   32 am 
    23   32   40 2  
    24   32   33 1  
    25   33   36 1  
    26   33   34 1  
    27   34   35 1  
    28   36   37 1  
    29   37   39 2  
    30   37   38 2  
    31   37   29 1  
    32   29   30 1  
    33   29   28 2  
    34   28   27 1  
    35   27   26 ar 
    36   27   22 ar 
    37   22   30 1  
    38   22   23 ar 
    39   23   24 ar 
    40   24   25 ar 
    41   25   26 ar 
    42   20    9 1  
    43   21   10 1  
    44   23   41 1  
    45   24   42 1  
    46   25   43 1  
    47   28   44 1  
    48   33   45 1  
    49   34   46 1  
    50   34   47 1  
    51   35   48 1  
    52   35   49 1  
    53   36   50 1  
@<TRIPOS>SUBSTRUCTURE
     1 SUB1        1 GROUP

