1f0t_ligand
  -I-interpret- 

 50 53  0  0  0  0  0  0  0  0999 V2000
   14.4512   -2.9514   25.7969 H   0  0  0  0  0
   15.1283   -3.1852   23.4332 H   0  0  0  0  0
   10.6968   -4.8252   24.8729 H   0  0  0  0  0
   10.4663   -3.8380   28.3565 H   0  0  0  0  0
   10.0859   -4.2572   26.6647 H   0  0  0  0  0
   13.8881   -3.0989   27.7173 H   0  0  0  0  0
   12.5953   -3.1845   28.9437 H   0  0  0  0  0
   11.2835   -4.9243   21.2107 H   0  0  0  0  0
   10.0283   -4.9671   22.4950 H   0  0  0  0  0
   12.9915   -4.6759   21.0522 H   0  0  0  0  0
   13.7720   -3.4110   25.0880 C   0  0  0  0  0
   14.1560   -3.5440   23.7510 C   0  0  0  0  0
   13.3000   -4.1340   22.8220 C   0  0  0  0  0
   12.0440   -4.6010   23.2210 C   0  0  0  0  0
   11.6700   -4.4620   24.5630 C   0  0  0  0  0
   12.5100   -3.8680   25.5270 C   0  0  0  0  0
   12.0420   -3.6980   27.0270 C   0  3  0  0  0
   10.7640   -3.9510   27.3770 N   0  0  0  0  0
   12.9090   -3.2960   27.9690 N   0  0  0  0  0
   11.0480   -5.2790   22.2250 C   0  0  0  0  0
   13.6830   -4.2570   21.5510 O   0  0  0  0  0
   12.8720  -13.0390   24.1350 C   0  0  0  0  0
   13.8970  -13.4940   24.9520 C   0  0  0  0  0
   15.0640  -14.0690   24.4210 C   0  0  0  0  0
   15.2430  -14.2110   23.0270 C   0  0  0  0  0
   14.2890  -13.7930   22.1540 N   0  0  0  0  0
   13.0650  -13.1940   22.6230 C   0  0  0  0  0
   11.9690  -12.6880   21.9200 C   0  0  0  0  0
   10.9670  -12.1590   22.8150 C   0  0  0  0  0
   11.3720  -12.2880   24.4850 S   0  0  0  0  0
   11.0900   -6.7510   22.2170 N   0  0  0  0  0
   10.0010   -7.5520   22.3190 C   0  0  0  0  0
   10.4840   -8.9760   22.3110 C   0  0  0  0  0
   11.7780   -8.8860   21.5170 C   0  0  0  0  0
   12.3140   -7.5010   21.8510 C   0  0  0  0  0
    9.8950  -10.0120   21.5570 N   0  0  0  0  0
    9.4800  -11.4170   22.2470 S   0  0  0  0  0
    8.6800  -11.0280   23.3660 O   0  0  0  0  0
    8.9380  -12.1760   21.1670 O   0  0  0  0  0
    8.8430   -7.1990   22.3950 O   0  0  0  0  0
   13.7949  -13.4036   26.0274 H   0  0  0  0  0
   15.8421  -14.4103   25.0942 H   0  0  0  0  0
   16.1542  -14.6597   22.6482 H   0  0  0  0  0
   11.8814  -12.6920   20.8345 H   0  0  0  0  0
   10.6136   -9.3066   23.3521 H   0  0  0  0  0
   11.5834   -8.9811   20.4386 H   0  0  0  0  0
   12.4861   -9.6666   21.8321 H   0  0  0  0  0
   13.0194   -7.5425   22.6940 H   0  0  0  0  0
   12.8099   -7.0481   20.9798 H   0  0  0  0  0
    9.7309   -9.8767   20.5799 H   0  0  0  0  0
 11  1  1  0  0  0
 12  2  1  0  0  0
 15  3  1  0  0  0
 18  4  1  0  0  0
 18  5  1  0  0  0
 19  6  1  0  0  0
 19  7  1  0  0  0
 20  8  1  0  0  0
 16 11  4  0  0  0
 11 12  4  0  0  0
 12 13  4  0  0  0
 13 21  1  0  0  0
 14 13  4  0  0  0
 14 20  1  0  0  0
 15 14  4  0  0  0
 16 15  4  0  0  0
 17 16  1  0  0  0
 17 19  1  0  0  0
 17 18  1  0  0  0
 20 31  1  0  0  0
 31 35  1  0  0  0
 31 32  1  0  0  0
 32 40  2  0  0  0
 32 33  1  0  0  0
 33 36  1  0  0  0
 33 34  1  0  0  0
 34 35  1  0  0  0
 36 37  1  0  0  0
 37 39  2  0  0  0
 37 38  2  0  0  0
 37 29  1  0  0  0
 29 30  1  0  0  0
 29 28  2  0  0  0
 28 27  1  0  0  0
 27 26  4  0  0  0
 27 22  4  0  0  0
 22 30  1  0  0  0
 22 23  4  0  0  0
 23 24  4  0  0  0
 24 25  4  0  0  0
 25 26  4  0  0  0
 20  9  1  0  0  0
 21 10  1  0  0  0
 23 41  1  0  0  0
 24 42  1  0  0  0
 25 43  1  0  0  0
 28 44  1  0  0  0
 33 45  1  0  0  0
 34 46  1  0  0  0
 34 47  1  0  0  0
 35 48  1  0  0  0
 35 49  1  0  0  0
 36 50  1  0  0  0
M  END
$$$$
