1m6p_ligand
  -I-interpret- 

 27 27  0  0  0  0  0  0  0  0999 V2000
   44.6900   40.2386   18.9191 H   0  0  0  0  0
   43.8370   40.2820   18.2260 C   0  0  0  0  0
   43.2570   38.8530   18.0900 C   0  0  0  0  0
   41.8730   38.8680   17.3910 C   0  0  0  0  0
   40.9070   39.7590   18.1350 C   0  0  0  0  0
   41.5450   41.1750   18.1250 C   0  0  0  0  0
   40.9650   42.0600   19.5210 C   0  0  0  0  0
   44.3220   40.7840   16.9750 O   0  0  0  0  0
   43.1120   38.2700   19.3780 O   0  0  0  0  0
   41.3590   37.5470   17.3230 O   0  0  0  0  0
   39.6420   39.7260   17.5060 O   0  0  0  0  0
   42.8430   41.1460   18.7970 O   0  0  0  0  0
   39.9010   42.6990   20.1610 O   0  0  0  0  0
   40.1700   43.9170   20.9980 P   0  0  0  0  0
   40.8790   44.8470   20.1760 O   0  0  0  0  0
   38.8830   44.2850   21.5100 O   0  5  0  0  0
   41.1130   43.4740   22.2080 O   0  5  0  0  0
   43.9520   38.2449   17.4924 H   0  0  0  0  0
   41.9963   39.2564   16.3693 H   0  0  0  0  0
   40.7951   39.4130   19.1731 H   0  0  0  0  0
   41.4908   41.6682   17.1432 H   0  0  0  0  0
   41.6885   42.8886   19.5155 H   0  0  0  0  0
   41.2363   41.3415   20.3085 H   0  0  0  0  0
   43.5997   40.8549   16.3621 H   0  0  0  0  0
   42.7560   37.3937   19.2895 H   0  0  0  0  0
   40.5113   37.5599   16.8943 H   0  0  0  0  0
   39.3123   38.8351   17.5070 H   0  0  0  0  0
  2 12  1  0  0  0
  2  8  1  0  0  0
  2  3  1  0  0  0
  3  9  1  0  0  0
  3  4  1  0  0  0
  4 10  1  0  0  0
  4  5  1  0  0  0
  5 11  1  0  0  0
  5  6  1  0  0  0
  6 12  1  0  0  0
  6  7  1  0  0  0
  7 13  1  0  0  0
 13 14  1  0  0  0
 14 17  1  0  0  0
 14 16  1  0  0  0
 14 15  2  0  0  0
  2  1  1  0  0  0
  3 18  1  0  0  0
  4 19  1  0  0  0
  5 20  1  0  0  0
  6 21  1  0  0  0
  7 22  1  0  0  0
  7 23  1  0  0  0
  8 24  1  0  0  0
  9 25  1  0  0  0
 10 26  1  0  0  0
 11 27  1  0  0  0
M  END
$$$$
