### 
### Created by X-TOOL on Mon Oct 24 22:41:09 2005
### 

@<TRIPOS>MOLECULE
1m6p_ligand
   27    27     1     0     0
SMALL
GAST_HUCK


@<TRIPOS>ATOM
      1 H21        44.6900   40.2386   18.9191 H         1 SUB1        0.094
      2 C1         43.8370   40.2820   18.2260 C.3       1 SUB1        0.185
      3 C2         43.2570   38.8530   18.0900 C.3       1 SUB1        0.134
      4 C3         41.8730   38.8680   17.3910 C.3       1 SUB1        0.114
      5 C4         40.9070   39.7590   18.1350 C.3       1 SUB1        0.112
      6 C5         41.5450   41.1750   18.1250 C.3       1 SUB1        0.117
      7 C6         40.9650   42.0600   19.5210 C.3       1 SUB1        0.094
      8 O1         44.3220   40.7840   16.9750 O.3       1 SUB1       -0.365
      9 O2         43.1120   38.2700   19.3780 O.3       1 SUB1       -0.384
     10 O3         41.3590   37.5470   17.3230 O.3       1 SUB1       -0.386
     11 O4         39.6420   39.7260   17.5060 O.3       1 SUB1       -0.387
     12 O5         42.8430   41.1460   18.7970 O.3       1 SUB1       -0.340
     13 O6         39.9010   42.6990   20.1610 O.3       1 SUB1       -0.320
     14 P          40.1700   43.9170   20.9980 P.3       1 SUB1        0.205
     15 O1P        40.8790   44.8470   20.1760 O.co2     1 SUB1       -0.535
     16 O2P        38.8830   44.2850   21.5100 O.co2     1 SUB1       -0.535
     17 O3P        41.1130   43.4740   22.2080 O.co2     1 SUB1       -0.535
     18 H31        43.9520   38.2449   17.4924 H         1 SUB1        0.067
     19 H41        41.9963   39.2564   16.3693 H         1 SUB1        0.065
     20 H51        40.7951   39.4130   19.1731 H         1 SUB1        0.065
     21 H61        41.4908   41.6682   17.1432 H         1 SUB1        0.065
     22 H71        41.6885   42.8886   19.5155 H         1 SUB1        0.064
     23 H72        41.2363   41.3415   20.3085 H         1 SUB1        0.064
     24 H81        43.5997   40.8549   16.3621 H         1 SUB1        0.213
     25 H91        42.7560   37.3937   19.2895 H         1 SUB1        0.210
     26 H101       40.5113   37.5599   16.8943 H         1 SUB1        0.210
     27 H111       39.3123   38.8351   17.5070 H         1 SUB1        0.210
@<TRIPOS>BOND
     1    2   12 1  
     2    2    8 1  
     3    2    3 1  
     4    3    9 1  
     5    3    4 1  
     6    4   10 1  
     7    4    5 1  
     8    5   11 1  
     9    5    6 1  
    10    6   12 1  
    11    6    7 1  
    12    7   13 1  
    13   13   14 1  
    14   14   17 2  
    15   14   16 2  
    16   14   15 2  
    17    2    1 1  
    18    3   18 1  
    19    4   19 1  
    20    5   20 1  
    21    6   21 1  
    22    7   22 1  
    23    7   23 1  
    24    8   24 1  
    25    9   25 1  
    26   10   26 1  
    27   11   27 1  
@<TRIPOS>SUBSTRUCTURE
     1 SUB1        1 GROUP

