### 
### Created by X-TOOL on Tue Oct 25 01:41:10 2005
### 

@<TRIPOS>MOLECULE
1v1j_ligand
   21    21     1     0     0
SMALL
GAST_HUCK


@<TRIPOS>ATOM
      1 C2         29.3690   51.4460   57.9320 C.3       1 SUB1       -0.058
      2 F1         27.7450   50.3240   61.4390 F         1 SUB1       -0.097
      3 C3         28.5440   50.1920   57.8800 C.3       1 SUB1        0.090
      4 O3         29.2350   49.2520   57.0620 O.3       1 SUB1       -0.386
      5 C4         28.4350   49.6720   59.2920 C.3       1 SUB1        0.184
      6 O4         27.4760   48.6360   59.3540 O.3       1 SUB1       -0.356
      7 C5         28.1230   50.7020   60.2090 C.2       1 SUB1        0.219
      8 C6         28.1960   52.0540   59.9400 C.2       1 SUB1       -0.047
      9 C          29.4380   53.6990   58.8660 C.2       1 SUB1        0.068
     10 O1         30.7350   53.7170   58.5840 O.co2     1 SUB1       -0.507
     11 O30        27.5280   52.9540   57.8730 O.3       1 SUB1       -0.489
     12 O2         28.8810   54.7930   59.2600 O.co2     1 SUB1       -0.507
     13 C1         28.5950   52.5100   58.6870 C.3       1 SUB1        0.045
     14 H11        29.5758   51.7951   56.9096 H         1 SUB1        0.006
     15 H12        30.3183   51.2427   58.4491 H         1 SUB1        0.006
     16 H31        27.5448   50.3956   57.4675 H         1 SUB1        0.065
     17 H41        28.7325   48.4473   57.0126 H         1 SUB1        0.210
     18 H51        29.4116   49.2530   59.5759 H         1 SUB1        0.104
     19 H61        27.4148   48.3156   60.2462 H         1 SUB1        0.218
     20 H81        27.9384   52.7721   60.7171 H         1 SUB1        0.057
     21 H111       27.0795   53.6717   58.3044 H         1 SUB1        0.173
@<TRIPOS>BOND
     1    1    3 1  
     2   13    1 1  
     3    7    2 1  
     4    3    4 1  
     5    3    5 1  
     6    5    6 1  
     7    7    5 1  
     8    8    7 2  
     9   13    8 1  
    10    9   10 2  
    11    9   12 2  
    12    9   13 1  
    13   13   11 1  
    14    1   14 1  
    15    1   15 1  
    16    3   16 1  
    17    4   17 1  
    18    5   18 1  
    19    6   19 1  
    20    8   20 1  
    21   11   21 1  
@<TRIPOS>SUBSTRUCTURE
     1 SUB1        1 GROUP

