### 
### Created by X-TOOL on Tue Oct 25 01:42:03 2005
### 

@<TRIPOS>MOLECULE
1t5f_ligand
   27    26     1     0     0
SMALL
GAST_HUCK


@<TRIPOS>ATOM
      1 NP1        88.5700   43.8420   -6.2920 N.4       1 SUB1        0.238
      2 C02        88.3750   43.9240   -7.8060 C.3       1 SUB1        0.015
      3 C03        88.8260   45.2290   -8.3850 C.2       1 SUB1        0.076
      4 O04        88.9680   45.4820   -9.5610 O.co2     1 SUB1       -0.561
      5 O05        88.9600   46.1310   -7.4170 O.co2     1 SUB1       -0.561
      6 C06        86.8730   43.5200   -8.1440 C.3       1 SUB1        0.002
      7 C07        85.9270   44.7670   -8.2390 C.3       1 SUB1       -0.045
      8 C08        84.5260   44.2260   -8.5560 C.3       1 SUB1       -0.048
      9 C09        83.5550   44.9910   -7.7060 C.3       1 SUB1       -0.002
     10 C10        82.1140   44.8390   -8.1500 C.3       1 SUB1        0.153
     11 O1         81.3760   44.6790   -6.9920 O.3       1 SUB1       -0.367
     12 O2         81.5480   46.0250   -8.6640 O.3       1 SUB1       -0.367
     13 H11        88.2502   42.9455   -5.9601 H         1 SUB1        0.202
     14 H12        88.0407   44.5741   -5.8449 H         1 SUB1        0.202
     15 H13        89.5476   43.9522   -6.0727 H         1 SUB1        0.202
     16 H21        89.0193   43.1556   -8.2582 H         1 SUB1        0.107
     17 H61        86.4999   42.8527   -7.3531 H         1 SUB1        0.036
     18 H62        86.8577   42.9905   -9.1080 H         1 SUB1        0.036
     19 H71        86.2648   45.4405   -9.0404 H         1 SUB1        0.027
     20 H72        85.9173   45.3107   -7.2828 H         1 SUB1        0.027
     21 H81        84.4728   43.1535   -8.3174 H         1 SUB1        0.027
     22 H82        84.2954   44.3767   -9.6209 H         1 SUB1        0.027
     23 H91        83.8214   46.0575   -7.7467 H         1 SUB1        0.031
     24 H92        83.6401   44.6311   -6.6700 H         1 SUB1        0.031
     25 H101       82.0098   44.0002   -8.8540 H         1 SUB1        0.090
     26 H111       81.5017   45.4351   -6.4307 H         1 SUB1        0.213
     27 H121       80.6204   45.8905   -8.8193 H         1 SUB1        0.213
@<TRIPOS>BOND
     1    1    2 1  
     2    2    3 1  
     3    2    6 1  
     4    3    4 2  
     5    3    5 2  
     6    6    7 1  
     7    7    8 1  
     8    8    9 1  
     9    9   10 1  
    10   10   11 1  
    11   10   12 1  
    12    1   13 1  
    13    1   14 1  
    14    1   15 1  
    15    2   16 1  
    16    6   17 1  
    17    6   18 1  
    18    7   19 1  
    19    7   20 1  
    20    8   21 1  
    21    8   22 1  
    22    9   23 1  
    23    9   24 1  
    24   10   25 1  
    25   11   26 1  
    26   12   27 1  
@<TRIPOS>SUBSTRUCTURE
     1 SUB1        1 GROUP

