### 
### Created by X-TOOL on Mon Oct 24 23:45:16 2005
### 

@<TRIPOS>MOLECULE
1b05_ligand
   58    57     1     0     0
SMALL
GAST_HUCK


@<TRIPOS>ATOM
      1 N           6.8840   16.6990   15.2850 N.4       1 SUB1        0.238
      2 CA          6.4780   18.0080   14.6520 C.3       1 SUB1        0.065
      3 C           5.2150   18.5430   15.3210 C.2       1 SUB1        0.227
      4 O           4.4280   17.7430   15.8270 O.2       1 SUB1       -0.391
      5 CB          6.2090   17.8530   13.1460 C.3       1 SUB1        0.008
      6 CG          5.1900   16.7820   12.7410 C.3       1 SUB1       -0.041
      7 CD          5.0660   16.6830   11.1980 C.3       1 SUB1       -0.012
      8 CE          6.4390   16.2680   10.5920 C.3       1 SUB1       -0.035
      9 NZ          6.5980   14.8130   10.9630 N.4       1 SUB1        0.219
     10 N           5.0800   19.8290   15.4610 N.am      1 SUB1       -0.260
     11 CA          3.9580   20.4790   16.1210 C.3       1 SUB1        0.140
     12 C           2.6430   20.3630   15.3690 C.2       1 SUB1        0.206
     13 O           2.5790   20.7100   14.1850 O.2       1 SUB1       -0.394
     14 CB          4.2210   21.9740   16.3740 C.3       1 SUB1        0.031
     15 SG          5.6110   22.1720   17.6070 S.3       1 SUB1       -0.174
     16 N           1.5780   20.0200   16.1000 N.am      1 SUB1       -0.268
     17 CA          0.2730   19.9130   15.4830 C.3       1 SUB1        0.081
     18 C          -0.7590   20.7790   16.2460 C.2       1 SUB1        0.053
     19 O          -1.7750   21.1190   15.6230 O.co2     1 SUB1       -0.564
     20 CB         -0.3500   18.5300   15.3100 C.3       1 SUB1       -0.018
     21 CG         -1.3710   18.6380   14.1520 C.3       1 SUB1       -0.043
     22 CD         -1.9940   17.3240   13.7850 C.3       1 SUB1       -0.012
     23 CE         -2.7310   17.3200   12.4390 C.3       1 SUB1       -0.035
     24 NZ         -3.7120   18.4370   12.3970 N.4       1 SUB1        0.219
     25 OE         -0.5180   21.2430   17.3380 O.co2     1 SUB1       -0.564
     26 H11         6.2801   16.5028   16.0679 H         1 SUB1        0.201
     27 H21         7.2943   18.7317   14.7930 H         1 SUB1        0.110
     28 H51         7.1642   17.6067   12.6593 H         1 SUB1        0.035
     29 H52         5.8447   18.8204   12.7701 H         1 SUB1        0.035
     30 H61         4.2085   17.0419   13.1641 H         1 SUB1        0.027
     31 H62         5.5145   15.8090   13.1384 H         1 SUB1        0.027
     32 H71         4.7659   17.6598   10.7909 H         1 SUB1        0.032
     33 H72         4.3080   15.9292   10.9387 H         1 SUB1        0.032
     34 H81         7.2518   16.8696   11.0249 H         1 SUB1        0.081
     35 H82         6.4337   16.3913    9.4990 H         1 SUB1        0.081
     36 H91         6.5978   14.7202   11.9667 H         1 SUB1        0.199
     37 H92         7.4691   14.4653   10.5937 H         1 SUB1        0.199
     38 H93         5.8334   14.2821   10.5763 H         1 SUB1        0.199
     39 H101        5.8001   20.4139   15.0877 H         1 SUB1        0.189
     40 H111        3.8312   19.9843   17.0953 H         1 SUB1        0.081
     41 H141        3.3094   22.4428   16.7730 H         1 SUB1        0.042
     42 H142        4.4998   22.4610   15.4279 H         1 SUB1        0.042
     43 H151        5.7783   23.1528   17.7683 H         1 SUB1        0.102
     44 H161        1.6832   19.8365   17.0774 H         1 SUB1        0.190
     45 H171        0.3872   20.3301   14.4716 H         1 SUB1        0.078
     46 H201       -0.8596   18.2262   16.2363 H         1 SUB1        0.032
     47 H202        0.4279   17.7932   15.0609 H         1 SUB1        0.032
     48 H211       -0.8543   19.0384   13.2673 H         1 SUB1        0.027
     49 H212       -2.1701   19.3307   14.4547 H         1 SUB1        0.027
     50 H221       -2.7144   17.0543   14.5713 H         1 SUB1        0.032
     51 H222       -1.1974   16.5667   13.7422 H         1 SUB1        0.032
     52 H231       -3.2611   16.3640   12.3160 H         1 SUB1        0.081
     53 H232       -2.0028   17.4430   11.6238 H         1 SUB1        0.081
     54 H241       -4.3863   18.3199   13.1370 H         1 SUB1        0.199
     55 H242       -4.1858   18.4348   11.5073 H         1 SUB1        0.199
     56 H243       -3.2288   19.3133   12.5182 H         1 SUB1        0.199
     57 H12         7.8381   16.7617   15.6041 H         1 SUB1        0.201
     58 H13         6.8048   15.9584   14.6058 H         1 SUB1        0.201
@<TRIPOS>BOND
     1    3    2 1  
     2    2    5 1  
     3    2    1 1  
     4    5    6 1  
     5    6    7 1  
     6    7    8 1  
     7    8    9 1  
     8    3    4 2  
     9   12   11 1  
    10   11   14 1  
    11   11   10 1  
    12   14   15 1  
    13   12   13 2  
    14   17   18 1  
    15   17   20 1  
    16   16   17 1  
    17   20   21 1  
    18   21   22 1  
    19   22   23 1  
    20   23   24 1  
    21   18   25 2  
    22   18   19 2  
    23   10    3 am 
    24   12   16 am 
    25    1   26 1  
    26    2   27 1  
    27    5   28 1  
    28    5   29 1  
    29    6   30 1  
    30    6   31 1  
    31    7   32 1  
    32    7   33 1  
    33    8   34 1  
    34    8   35 1  
    35    9   36 1  
    36    9   37 1  
    37    9   38 1  
    38   10   39 1  
    39   11   40 1  
    40   14   41 1  
    41   14   42 1  
    42   15   43 1  
    43   16   44 1  
    44   17   45 1  
    45   20   46 1  
    46   20   47 1  
    47   21   48 1  
    48   21   49 1  
    49   22   50 1  
    50   22   51 1  
    51   23   52 1  
    52   23   53 1  
    53   24   54 1  
    54   24   55 1  
    55   24   56 1  
    56    1   57 1  
    57    1   58 1  
@<TRIPOS>SUBSTRUCTURE
     1 SUB1        1 GROUP

