1b05_ligand
  -I-interpret- 

 58 57  0  0  0  0  0  0  0  0999 V2000
    6.8840   16.6990   15.2850 N   0  3  0  0  0
    6.4780   18.0080   14.6520 C   0  0  0  0  0
    5.2150   18.5430   15.3210 C   0  0  0  0  0
    4.4280   17.7430   15.8270 O   0  0  0  0  0
    6.2090   17.8530   13.1460 C   0  0  0  0  0
    5.1900   16.7820   12.7410 C   0  0  0  0  0
    5.0660   16.6830   11.1980 C   0  0  0  0  0
    6.4390   16.2680   10.5920 C   0  0  0  0  0
    6.5980   14.8130   10.9630 N   0  3  0  0  0
    5.0800   19.8290   15.4610 N   0  0  0  0  0
    3.9580   20.4790   16.1210 C   0  0  0  0  0
    2.6430   20.3630   15.3690 C   0  0  0  0  0
    2.5790   20.7100   14.1850 O   0  0  0  0  0
    4.2210   21.9740   16.3740 C   0  0  0  0  0
    5.6110   22.1720   17.6070 S   0  0  0  0  0
    1.5780   20.0200   16.1000 N   0  0  0  0  0
    0.2730   19.9130   15.4830 C   0  0  0  0  0
   -0.7590   20.7790   16.2460 C   0  0  0  0  0
   -1.7750   21.1190   15.6230 O   0  5  0  0  0
   -0.3500   18.5300   15.3100 C   0  0  0  0  0
   -1.3710   18.6380   14.1520 C   0  0  0  0  0
   -1.9940   17.3240   13.7850 C   0  0  0  0  0
   -2.7310   17.3200   12.4390 C   0  0  0  0  0
   -3.7120   18.4370   12.3970 N   0  3  0  0  0
   -0.5180   21.2430   17.3380 O   0  0  0  0  0
    6.2801   16.5028   16.0679 H   0  0  0  0  0
    7.2943   18.7317   14.7930 H   0  0  0  0  0
    7.1642   17.6067   12.6593 H   0  0  0  0  0
    5.8447   18.8204   12.7701 H   0  0  0  0  0
    4.2085   17.0419   13.1641 H   0  0  0  0  0
    5.5145   15.8090   13.1384 H   0  0  0  0  0
    4.7659   17.6598   10.7909 H   0  0  0  0  0
    4.3080   15.9292   10.9387 H   0  0  0  0  0
    7.2518   16.8696   11.0249 H   0  0  0  0  0
    6.4337   16.3913    9.4990 H   0  0  0  0  0
    6.5978   14.7202   11.9667 H   0  0  0  0  0
    7.4691   14.4653   10.5937 H   0  0  0  0  0
    5.8334   14.2821   10.5763 H   0  0  0  0  0
    5.8001   20.4139   15.0877 H   0  0  0  0  0
    3.8312   19.9843   17.0953 H   0  0  0  0  0
    3.3094   22.4428   16.7730 H   0  0  0  0  0
    4.4998   22.4610   15.4279 H   0  0  0  0  0
    5.7783   23.1528   17.7683 H   0  0  0  0  0
    1.6832   19.8365   17.0774 H   0  0  0  0  0
    0.3872   20.3301   14.4716 H   0  0  0  0  0
   -0.8596   18.2262   16.2363 H   0  0  0  0  0
    0.4279   17.7932   15.0609 H   0  0  0  0  0
   -0.8543   19.0384   13.2673 H   0  0  0  0  0
   -2.1701   19.3307   14.4547 H   0  0  0  0  0
   -2.7144   17.0543   14.5713 H   0  0  0  0  0
   -1.1974   16.5667   13.7422 H   0  0  0  0  0
   -3.2611   16.3640   12.3160 H   0  0  0  0  0
   -2.0028   17.4430   11.6238 H   0  0  0  0  0
   -4.3863   18.3199   13.1370 H   0  0  0  0  0
   -4.1858   18.4348   11.5073 H   0  0  0  0  0
   -3.2288   19.3133   12.5182 H   0  0  0  0  0
    7.8381   16.7617   15.6041 H   0  0  0  0  0
    6.8048   15.9584   14.6058 H   0  0  0  0  0
  3  2  1  0  0  0
  2  5  1  0  0  0
  2  1  1  0  0  0
  5  6  1  0  0  0
  6  7  1  0  0  0
  7  8  1  0  0  0
  8  9  1  0  0  0
  3  4  2  0  0  0
 12 11  1  0  0  0
 11 14  1  0  0  0
 11 10  1  0  0  0
 14 15  1  0  0  0
 12 13  2  0  0  0
 17 18  1  0  0  0
 17 20  1  0  0  0
 16 17  1  0  0  0
 20 21  1  0  0  0
 21 22  1  0  0  0
 22 23  1  0  0  0
 23 24  1  0  0  0
 18 25  2  0  0  0
 18 19  1  0  0  0
 10  3  1  0  0  0
 12 16  1  0  0  0
  1 26  1  0  0  0
  2 27  1  0  0  0
  5 28  1  0  0  0
  5 29  1  0  0  0
  6 30  1  0  0  0
  6 31  1  0  0  0
  7 32  1  0  0  0
  7 33  1  0  0  0
  8 34  1  0  0  0
  8 35  1  0  0  0
  9 36  1  0  0  0
  9 37  1  0  0  0
  9 38  1  0  0  0
 10 39  1  0  0  0
 11 40  1  0  0  0
 14 41  1  0  0  0
 14 42  1  0  0  0
 15 43  1  0  0  0
 16 44  1  0  0  0
 17 45  1  0  0  0
 20 46  1  0  0  0
 20 47  1  0  0  0
 21 48  1  0  0  0
 21 49  1  0  0  0
 22 50  1  0  0  0
 22 51  1  0  0  0
 23 52  1  0  0  0
 23 53  1  0  0  0
 24 54  1  0  0  0
 24 55  1  0  0  0
 24 56  1  0  0  0
  1 57  1  0  0  0
  1 58  1  0  0  0
M  END
$$$$
