2rkm_ligand
  -I-interpret- 

 47 46  0  0  0  0  0  0  0  0999 V2000
    6.8580   17.0300   15.4260 N   0  3  0  0  0
    6.3580   18.3180   14.8710 C   0  0  0  0  0
    5.2260   18.8750   15.7370 C   0  0  0  0  0
    4.4490   18.1430   16.3590 O   0  0  0  0  0
    5.9260   18.2340   13.4140 C   0  0  0  0  0
    5.1640   16.9910   13.0030 C   0  0  0  0  0
    5.0810   16.9400   11.4710 C   0  0  0  0  0
    6.3810   16.3250   10.9620 C   0  0  0  0  0
    6.4700   14.8860   11.3450 N   0  3  0  0  0
    5.2010   20.1990   15.8510 N   0  0  0  0  0
    4.2160   20.8820   16.6810 C   0  0  0  0  0
    2.8770   21.1230   16.0030 C   0  0  0  0  0
    2.8140   21.0780   14.7630 O   0  0  0  0  0
    4.7530   22.2500   17.1500 C   0  0  0  0  0
    5.9940   22.1200   18.0240 C   0  0  0  0  0
    5.8980   22.9130   19.3070 C   0  0  0  0  0
    7.1950   22.8600   20.1030 C   0  0  0  0  0
    7.0610   22.0360   21.3460 N   0  3  0  0  0
    1.8840   21.3300   16.7560 O   0  5  0  0  0
    6.3461   16.8042   16.2644 H   0  0  0  0  0
    7.1934   19.0322   14.9168 H   0  0  0  0  0
    6.8324   18.2901   12.7934 H   0  0  0  0  0
    5.2845   19.1029   13.2055 H   0  0  0  0  0
    4.1493   17.0234   13.4265 H   0  0  0  0  0
    5.6877   16.0977   13.3740 H   0  0  0  0  0
    4.9629   17.9563   11.0671 H   0  0  0  0  0
    4.2261   16.3209   11.1615 H   0  0  0  0  0
    7.2323   16.8679   11.3985 H   0  0  0  0  0
    6.4154   16.4095    9.8658 H   0  0  0  0  0
    6.4518   14.8039   12.3495 H   0  0  0  0  0
    7.3301   14.4968   10.9917 H   0  0  0  0  0
    5.6883   14.3849   10.9527 H   0  0  0  0  0
    5.8771   20.7422   15.3532 H   0  0  0  0  0
    4.0390   20.2511   17.5646 H   0  0  0  0  0
    3.9668   22.7589   17.7270 H   0  0  0  0  0
    5.0061   22.8521   16.2649 H   0  0  0  0  0
    6.8635   22.4793   17.4540 H   0  0  0  0  0
    6.1348   21.0589   18.2774 H   0  0  0  0  0
    5.0857   22.4983   19.9220 H   0  0  0  0  0
    5.6734   23.9615   19.0616 H   0  0  0  0  0
    7.4796   23.8842   20.3857 H   0  0  0  0  0
    7.9814   22.4223   19.4706 H   0  0  0  0  0
    6.3534   22.4379   21.9408 H   0  0  0  0  0
    7.9421   22.0203   21.8354 H   0  0  0  0  0
    6.7973   21.0951   21.0986 H   0  0  0  0  0
    7.8384   17.1160   15.6439 H   0  0  0  0  0
    6.7280   16.2978   14.7455 H   0  0  0  0  0
  3  2  1  0  0  0
  2  5  1  0  0  0
  2  1  1  0  0  0
  5  6  1  0  0  0
  6  7  1  0  0  0
  7  8  1  0  0  0
  8  9  1  0  0  0
  3  4  2  0  0  0
 11 12  1  0  0  0
 11 14  1  0  0  0
 10 11  1  0  0  0
 14 15  1  0  0  0
 15 16  1  0  0  0
 16 17  1  0  0  0
 17 18  1  0  0  0
 12 19  1  0  0  0
 12 13  2  0  0  0
  3 10  1  0  0  0
  1 20  1  0  0  0
  2 21  1  0  0  0
  5 22  1  0  0  0
  5 23  1  0  0  0
  6 24  1  0  0  0
  6 25  1  0  0  0
  7 26  1  0  0  0
  7 27  1  0  0  0
  8 28  1  0  0  0
  8 29  1  0  0  0
  9 30  1  0  0  0
  9 31  1  0  0  0
  9 32  1  0  0  0
 10 33  1  0  0  0
 11 34  1  0  0  0
 14 35  1  0  0  0
 14 36  1  0  0  0
 15 37  1  0  0  0
 15 38  1  0  0  0
 16 39  1  0  0  0
 16 40  1  0  0  0
 17 41  1  0  0  0
 17 42  1  0  0  0
 18 43  1  0  0  0
 18 44  1  0  0  0
 18 45  1  0  0  0
  1 46  1  0  0  0
  1 47  1  0  0  0
M  END
$$$$
