### 
### Created by X-TOOL on Mon Oct 24 22:39:56 2005
### 

@<TRIPOS>MOLECULE
2rkm_ligand
   47    46     1     0     0
SMALL
GAST_HUCK


@<TRIPOS>ATOM
      1 N           6.8580   17.0300   15.4260 N.4       1 SUB1        0.238
      2 CA          6.3580   18.3180   14.8710 C.3       1 SUB1        0.065
      3 C           5.2260   18.8750   15.7370 C.2       1 SUB1        0.228
      4 O           4.4490   18.1430   16.3590 O.2       1 SUB1       -0.391
      5 CB          5.9260   18.2340   13.4140 C.3       1 SUB1        0.008
      6 CG          5.1640   16.9910   13.0030 C.3       1 SUB1       -0.041
      7 CD          5.0810   16.9400   11.4710 C.3       1 SUB1       -0.012
      8 CE          6.3810   16.3250   10.9620 C.3       1 SUB1       -0.035
      9 NZ          6.4700   14.8860   11.3450 N.4       1 SUB1        0.219
     10 N           5.2010   20.1990   15.8510 N.am      1 SUB1       -0.266
     11 CA          4.2160   20.8820   16.6810 C.3       1 SUB1        0.081
     12 C           2.8770   21.1230   16.0030 C.2       1 SUB1        0.053
     13 O           2.8140   21.0780   14.7630 O.co2     1 SUB1       -0.564
     14 CB          4.7530   22.2500   17.1500 C.3       1 SUB1       -0.018
     15 CG          5.9940   22.1200   18.0240 C.3       1 SUB1       -0.043
     16 CD          5.8980   22.9130   19.3070 C.3       1 SUB1       -0.012
     17 CE          7.1950   22.8600   20.1030 C.3       1 SUB1       -0.035
     18 NZ          7.0610   22.0360   21.3460 N.4       1 SUB1        0.219
     19 OXT         1.8840   21.3300   16.7560 O.co2     1 SUB1       -0.564
     20 H11         6.3461   16.8042   16.2644 H         1 SUB1        0.201
     21 H21         7.1934   19.0322   14.9168 H         1 SUB1        0.110
     22 H51         6.8324   18.2901   12.7934 H         1 SUB1        0.035
     23 H52         5.2845   19.1029   13.2055 H         1 SUB1        0.035
     24 H61         4.1493   17.0234   13.4265 H         1 SUB1        0.027
     25 H62         5.6877   16.0977   13.3740 H         1 SUB1        0.027
     26 H71         4.9629   17.9563   11.0671 H         1 SUB1        0.032
     27 H72         4.2261   16.3209   11.1615 H         1 SUB1        0.032
     28 H81         7.2323   16.8679   11.3985 H         1 SUB1        0.081
     29 H82         6.4154   16.4095    9.8658 H         1 SUB1        0.081
     30 H91         6.4518   14.8039   12.3495 H         1 SUB1        0.199
     31 H92         7.3301   14.4968   10.9917 H         1 SUB1        0.199
     32 H93         5.6883   14.3849   10.9527 H         1 SUB1        0.199
     33 H101        5.8771   20.7422   15.3532 H         1 SUB1        0.190
     34 H111        4.0390   20.2511   17.5646 H         1 SUB1        0.078
     35 H141        3.9668   22.7589   17.7270 H         1 SUB1        0.032
     36 H142        5.0061   22.8521   16.2649 H         1 SUB1        0.032
     37 H151        6.8635   22.4793   17.4540 H         1 SUB1        0.027
     38 H152        6.1348   21.0589   18.2774 H         1 SUB1        0.027
     39 H161        5.0857   22.4983   19.9220 H         1 SUB1        0.032
     40 H162        5.6734   23.9615   19.0616 H         1 SUB1        0.032
     41 H171        7.4796   23.8842   20.3857 H         1 SUB1        0.081
     42 H172        7.9814   22.4223   19.4706 H         1 SUB1        0.081
     43 H181        6.3534   22.4379   21.9408 H         1 SUB1        0.199
     44 H182        7.9421   22.0203   21.8354 H         1 SUB1        0.199
     45 H183        6.7973   21.0951   21.0986 H         1 SUB1        0.199
     46 H12         7.8384   17.1160   15.6439 H         1 SUB1        0.201
     47 H13         6.7280   16.2978   14.7455 H         1 SUB1        0.201
@<TRIPOS>BOND
     1    3    2 1  
     2    2    5 1  
     3    2    1 1  
     4    5    6 1  
     5    6    7 1  
     6    7    8 1  
     7    8    9 1  
     8    3    4 2  
     9   11   12 1  
    10   11   14 1  
    11   10   11 1  
    12   14   15 1  
    13   15   16 1  
    14   16   17 1  
    15   17   18 1  
    16   12   19 2  
    17   12   13 2  
    18    3   10 am 
    19    1   20 1  
    20    2   21 1  
    21    5   22 1  
    22    5   23 1  
    23    6   24 1  
    24    6   25 1  
    25    7   26 1  
    26    7   27 1  
    27    8   28 1  
    28    8   29 1  
    29    9   30 1  
    30    9   31 1  
    31    9   32 1  
    32   10   33 1  
    33   11   34 1  
    34   14   35 1  
    35   14   36 1  
    36   15   37 1  
    37   15   38 1  
    38   16   39 1  
    39   16   40 1  
    40   17   41 1  
    41   17   42 1  
    42   18   43 1  
    43   18   44 1  
    44   18   45 1  
    45    1   46 1  
    46    1   47 1  
@<TRIPOS>SUBSTRUCTURE
     1 SUB1        1 GROUP

