### 
### Created by X-TOOL on Mon Oct 24 23:06:15 2005
### 

@<TRIPOS>MOLECULE
1yei_ligand
   36    36     1     0     0
SMALL
GAST_HUCK


@<TRIPOS>ATOM
      1 H151       12.4236   39.4701   60.8579 H         1 SUB1        0.060
      2 H161       10.1597   40.4995   61.1405 H         1 SUB1        0.067
      3 H181        8.7717   36.8560   62.9935 H         1 SUB1        0.067
      4 H191       11.0310   35.8148   62.7071 H         1 SUB1        0.060
      5 H241       15.5028   35.6592   62.3179 H         1 SUB1        0.069
      6 H251       16.2861   37.9570   60.4731 H         1 SUB1        0.032
      7 H252       15.3292   36.5026   60.0309 H         1 SUB1        0.032
      8 H261       17.2363   35.0974   60.9544 H         1 SUB1        0.050
      9 H262       18.1910   36.6127   61.0923 H         1 SUB1        0.050
     10 H281       17.0495   34.0861   59.0012 H         1 SUB1        0.189
     11 H301       18.2015   33.4422   57.1702 H         1 SUB1        0.074
     12 H302       18.7392   35.1404   56.9385 H         1 SUB1        0.074
     13 H242       16.5350   37.0564   62.7751 H         1 SUB1        0.069
     14 C1         11.8160   37.6100   61.7770 C.ar      1 SUB1        0.181
     15 C2         11.6170   38.9150   61.3230 C.ar      1 SUB1       -0.010
     16 C3         10.3510   39.4890   61.4830 C.ar      1 SUB1       -0.028
     17 C4          9.3390   38.7460   62.0880 C.ar      1 SUB1        0.130
     18 C5          9.5750   37.4180   62.5310 C.ar      1 SUB1       -0.028
     19 C6         10.8320   36.8280   62.3770 C.ar      1 SUB1       -0.010
     20 P1         14.2800   37.6130   62.6360 P.3       1 SUB1        0.367
     21 O1         13.0930   37.0790   61.6490 O.3       1 SUB1       -0.104
     22 O2         14.4440   39.0080   62.3740 O.co2     1 SUB1       -0.391
     23 O3         13.9260   37.2270   63.9920 O.co2     1 SUB1       -0.391
     24 C8         15.6960   36.7280   62.1440 C.3       1 SUB1        0.116
     25 C9         16.1100   36.8950   60.6990 C.3       1 SUB1       -0.001
     26 C10        17.3960   36.1000   60.5310 C.3       1 SUB1        0.040
     27 C11        17.8600   35.9380   59.0990 C.2       1 SUB1        0.179
     28 N2         17.5560   34.7760   58.4840 N.am      1 SUB1       -0.273
     29 O6         18.4960   36.8780   58.5530 O.2       1 SUB1       -0.397
     30 C12        17.8940   34.4970   57.2240 C.3       1 SUB1        0.070
     31 C13        16.7390   34.7250   56.2150 C.2       1 SUB1        0.050
     32 O7         16.6240   33.9260   55.2600 O.co2     1 SUB1       -0.564
     33 O8         16.2180   35.8600   56.1190 O.co2     1 SUB1       -0.564
     34 N1          8.0100   39.3660   62.3160 N.2       1 SUB1        0.037
     35 O4          7.7370   40.5310   61.9380 O.2       1 SUB1       -0.153
     36 O5          7.1700   38.7140   62.9130 O.2       1 SUB1       -0.153
@<TRIPOS>BOND
     1   15    1 1  
     2   16    2 1  
     3   18    3 1  
     4   19    4 1  
     5   24    5 1  
     6   25    6 1  
     7   21   14 1  
     8   14   19 ar 
     9   14   15 ar 
    10   15   16 ar 
    11   16   17 ar 
    12   17   34 1  
    13   18   17 ar 
    14   19   18 ar 
    15   34   36 2  
    16   34   35 2  
    17   20   21 1  
    18   20   22 2  
    19   20   23 2  
    20   24   20 1  
    21   24   25 1  
    22   25   26 1  
    23   26   27 1  
    24   27   29 2  
    25   27   28 am 
    26   28   30 1  
    27   30   31 1  
    28   31   33 2  
    29   31   32 2  
    30   25    7 1  
    31   26    8 1  
    32   26    9 1  
    33   28   10 1  
    34   30   11 1  
    35   30   12 1  
    36   24   13 1  
@<TRIPOS>SUBSTRUCTURE
     1 SUB1        1 GROUP

