1yei_ligand
  -I-interpret- 

 36 36  0  0  0  0  0  0  0  0999 V2000
   12.4236   39.4701   60.8579 H   0  0  0  0  0
   10.1597   40.4995   61.1405 H   0  0  0  0  0
    8.7717   36.8560   62.9935 H   0  0  0  0  0
   11.0310   35.8148   62.7071 H   0  0  0  0  0
   15.5028   35.6592   62.3179 H   0  0  0  0  0
   16.2861   37.9570   60.4731 H   0  0  0  0  0
   15.3292   36.5026   60.0309 H   0  0  0  0  0
   17.2363   35.0974   60.9544 H   0  0  0  0  0
   18.1910   36.6127   61.0923 H   0  0  0  0  0
   17.0495   34.0861   59.0012 H   0  0  0  0  0
   18.2015   33.4422   57.1702 H   0  0  0  0  0
   18.7392   35.1404   56.9385 H   0  0  0  0  0
   16.5350   37.0564   62.7751 H   0  0  0  0  0
   11.8160   37.6100   61.7770 C   0  0  0  0  0
   11.6170   38.9150   61.3230 C   0  0  0  0  0
   10.3510   39.4890   61.4830 C   0  0  0  0  0
    9.3390   38.7460   62.0880 C   0  0  0  0  0
    9.5750   37.4180   62.5310 C   0  0  0  0  0
   10.8320   36.8280   62.3770 C   0  0  0  0  0
   14.2800   37.6130   62.6360 P   0  0  0  0  0
   13.0930   37.0790   61.6490 O   0  0  0  0  0
   14.4440   39.0080   62.3740 O   0  0  0  0  0
   13.9260   37.2270   63.9920 O   0  5  0  0  0
   15.6960   36.7280   62.1440 C   0  0  0  0  0
   16.1100   36.8950   60.6990 C   0  0  0  0  0
   17.3960   36.1000   60.5310 C   0  0  0  0  0
   17.8600   35.9380   59.0990 C   0  0  0  0  0
   17.5560   34.7760   58.4840 N   0  0  0  0  0
   18.4960   36.8780   58.5530 O   0  0  0  0  0
   17.8940   34.4970   57.2240 C   0  0  0  0  0
   16.7390   34.7250   56.2150 C   0  0  0  0  0
   16.6240   33.9260   55.2600 O   0  0  0  0  0
   16.2180   35.8600   56.1190 O   0  5  0  0  0
    8.0100   39.3660   62.3160 N   0  0  0  0  0
    7.7370   40.5310   61.9380 O   0  0  0  0  0
    7.1700   38.7140   62.9130 O   0  0  0  0  0
 15  1  1  0  0  0
 16  2  1  0  0  0
 18  3  1  0  0  0
 19  4  1  0  0  0
 24  5  1  0  0  0
 25  6  1  0  0  0
 21 14  1  0  0  0
 14 19  4  0  0  0
 14 15  4  0  0  0
 15 16  4  0  0  0
 16 17  4  0  0  0
 17 34  1  0  0  0
 18 17  4  0  0  0
 19 18  4  0  0  0
 34 36  2  0  0  0
 34 35  2  0  0  0
 20 21  1  0  0  0
 20 22  2  0  0  0
 20 23  1  0  0  0
 24 20  1  0  0  0
 24 25  1  0  0  0
 25 26  1  0  0  0
 26 27  1  0  0  0
 27 29  2  0  0  0
 27 28  1  0  0  0
 28 30  1  0  0  0
 30 31  1  0  0  0
 31 33  1  0  0  0
 31 32  2  0  0  0
 25  7  1  0  0  0
 26  8  1  0  0  0
 26  9  1  0  0  0
 28 10  1  0  0  0
 30 11  1  0  0  0
 30 12  1  0  0  0
 24 13  1  0  0  0
M  END
$$$$
