1c5y_ligand
  -I-interpret- 

 20 21  0  0  0  0  0  0  0  0999 V2000
    8.1660   -0.9270   25.8650 C   0  3  0  0  0
    8.4900    0.3310   25.4350 C   0  0  0  0  0
    7.5500   -1.0330   27.0040 N   0  0  0  0  0
    8.5110   -1.9100   25.0980 N   0  0  0  0  0
    9.0730    0.5490   23.7620 S   0  0  0  0  0
    9.2650    2.2370   23.9650 C   0  0  0  0  0
    8.8960    2.5900   25.2540 C   0  0  0  0  0
    8.4730    1.5580   26.0570 C   0  0  0  0  0
    9.6740    3.1910   23.1680 N   0  0  0  0  0
    9.7660    4.4770   23.4640 C   0  0  0  0  0
    9.3970    4.8440   24.7560 C   0  0  0  0  0
    8.9570    3.9010   25.6530 C   0  0  0  0  0
    7.4060   -0.1620   27.4970 H   0  0  0  0  0
    7.2170   -1.8680   27.4210 H   0  0  0  0  0
    9.0400   -1.6980   24.2650 H   0  0  0  0  0
    8.3260   -2.8560   25.2870 H   0  0  0  0  0
    8.1590    1.7090   27.0830 H   0  0  0  0  0
   10.1130    5.2030   22.7470 H   0  0  0  0  0
    9.4470    5.8810   25.0600 H   0  0  0  0  0
    8.6680    4.1770   26.6510 H   0  0  0  0  0
  2  5  1  0  0  0
  3 14  1  0  0  0
  3 13  1  0  0  0
  4 16  1  0  0  0
  4 15  1  0  0  0
  5  6  1  0  0  0
  7  6  4  0  0  0
  8 17  1  0  0  0
 11 10  4  0  0  0
 10 18  1  0  0  0
 11 19  1  0  0  0
 12 20  1  0  0  0
  7 12  4  0  0  0
 12 11  4  0  0  0
  9 10  4  0  0  0
  6  9  4  0  0  0
  2  8  2  0  0  0
  8  7  1  0  0  0
  1  2  1  0  0  0
  1  3  1  0  0  0
  1  4  1  0  0  0
M  END
$$$$
