### 
### Created by X-TOOL on Mon Oct 24 22:26:31 2005
### 

@<TRIPOS>MOLECULE
1c5y_ligand
   20    21     1     0     0
SMALL
GAST_HUCK


@<TRIPOS>ATOM
      1 C0          8.1660   -0.9270   25.8650 C.cat     1 SUB1        0.252
      2 C1          8.4900    0.3310   25.4350 C.2       1 SUB1        0.091
      3 N1          7.5500   -1.0330   27.0040 N.pl3     1 SUB1       -0.270
      4 N2          8.5110   -1.9100   25.0980 N.pl3     1 SUB1       -0.270
      5 S2          9.0730    0.5490   23.7620 S.3       1 SUB1       -0.012
      6 C3          9.2650    2.2370   23.9650 C.ar      1 SUB1        0.107
      7 C4          8.8960    2.5900   25.2540 C.ar      1 SUB1        0.001
      8 C5          8.4730    1.5580   26.0570 C.2       1 SUB1       -0.047
      9 N6          9.6740    3.1910   23.1680 N.ar      1 SUB1       -0.288
     10 C7          9.7660    4.4770   23.4640 C.ar      1 SUB1        0.001
     11 C8          9.3970    4.8440   24.7560 C.ar      1 SUB1       -0.044
     12 C9          8.9570    3.9010   25.6530 C.ar      1 SUB1       -0.048
     13 H31         7.4060   -0.1620   27.4970 H         1 SUB1        0.318
     14 H32         7.2170   -1.8680   27.4210 H         1 SUB1        0.318
     15 H41         9.0400   -1.6980   24.2650 H         1 SUB1        0.318
     16 H42         8.3260   -2.8560   25.2870 H         1 SUB1        0.318
     17 H81         8.1590    1.7090   27.0830 H         1 SUB1        0.044
     18 H101       10.1130    5.2030   22.7470 H         1 SUB1        0.078
     19 H111        9.4470    5.8810   25.0600 H         1 SUB1        0.064
     20 H121        8.6680    4.1770   26.6510 H         1 SUB1        0.069
@<TRIPOS>BOND
     1    2    5 1  
     2    3   14 1  
     3    3   13 1  
     4    4   16 1  
     5    4   15 1  
     6    5    6 1  
     7    7    6 ar 
     8    8   17 1  
     9   11   10 ar 
    10   10   18 1  
    11   11   19 1  
    12   12   20 1  
    13    7   12 ar 
    14   12   11 ar 
    15    9   10 ar 
    16    6    9 ar 
    17    2    8 2  
    18    8    7 1  
    19    1    2 1  
    20    1    3 1  
    21    1    4 1  
@<TRIPOS>SUBSTRUCTURE
     1 SUB1        1 GROUP

