### 
### Created by X-TOOL on Sun Jun  3 12:36:32 2007
### 

@<TRIPOS>MOLECULE
2gsu_ligand
   35    37     1     0     0
SMALL
GAST_HUCK


@<TRIPOS>ATOM
      1 P          29.5860   43.9380   22.7300 P.3       1 SUB1        0.615
      2 O1P        28.3430   44.7100   23.0700 O.2       1 SUB1       -0.214
      3 O2P        29.8250   42.6930   23.5730 O.2       1 SUB1       -0.214
      4 O3P        30.7940   44.7930   22.5040 O.2       1 SUB1       -0.214
      5 O5         29.2740   43.4120   21.2330 O.3       1 SUB1       -0.214
      6 C5         27.9430   43.1350   20.7540 C.3       1 SUB1        0.113
      7 C4         27.5620   44.0160   19.5540 C.3       1 SUB1        0.118
      8 O4         27.1770   43.2010   18.4360 O.3       1 SUB1       -0.336
      9 C3         26.3930   44.9470   19.8320 C.3       1 SUB1        0.115
     10 O3         26.8460   46.3080   19.9420 O.3       1 SUB1       -0.386
     11 C2         25.4030   44.7610   18.6890 C.3       1 SUB1        0.139
     12 O2         25.2850   45.9640   17.9180 O.3       1 SUB1       -0.384
     13 C1         25.9170   43.5790   17.8560 C.3       1 SUB1        0.201
     14 N9         24.9970   42.3930   17.8350 N.pl3     1 SUB1       -0.192
     15 C8         23.9770   42.1770   18.6850 C.2       1 SUB1        0.112
     16 N7         23.3240   41.0220   18.4250 N.2       1 SUB1       -0.296
     17 C5         23.9220   40.4530   17.3840 C.ar      1 SUB1        0.105
     18 C6         23.7040   39.2090   16.6220 C.ar      1 SUB1        0.130
     19 N6         22.6940   38.3710   16.9670 N.pl3     1 SUB1       -0.315
     20 N1         24.5400   38.9570   15.5870 N.ar      1 SUB1       -0.270
     21 C2         25.5310   39.8090   15.2560 C.ar      1 SUB1        0.053
     22 N3         25.7730   40.9590   15.9250 N.ar      1 SUB1       -0.271
     23 C4         25.0230   41.3460   16.9900 C.ar      1 SUB1        0.161
     24 H          27.2420   43.3421   21.5625 H         1 SUB1        0.064
     25 H          27.9078   42.0935   20.4344 H         1 SUB1        0.064
     26 H          28.4510   44.6112   19.3453 H         1 SUB1        0.065
     27 H          25.9118   44.7126   20.7815 H         1 SUB1        0.065
     28 H          27.2661   46.5717   19.1201 H         1 SUB1        0.210
     29 H          24.3990   44.5486   19.0565 H         1 SUB1        0.068
     30 H          24.9763   46.6760   18.4832 H         1 SUB1        0.210
     31 H          25.9966   43.8946   16.8157 H         1 SUB1        0.100
     32 H          23.7071   42.8570   19.4930 H         1 SUB1        0.135
     33 H          22.0860   38.6015   17.7529 H         1 SUB1        0.182
     34 H          22.5428   37.5106   16.4404 H         1 SUB1        0.182
     35 H          26.1682   39.5587   14.4078 H         1 SUB1        0.100
@<TRIPOS>BOND
     1    1    2 2  
     2    1    3 2  
     3    1    4 2  
     4    1    5 1  
     5    5    6 1  
     6    6    7 1  
     7    7    8 1  
     8    7    9 1  
     9    8   13 1  
    10    9   10 1  
    11    9   11 1  
    12   11   12 1  
    13   11   13 1  
    14   13   14 1  
    15   14   15 1  
    16   14   23 1  
    17   15   16 2  
    18   16   17 1  
    19   17   18 ar 
    20   17   23 ar 
    21   18   19 1  
    22   18   20 ar 
    23   20   21 ar 
    24   21   22 ar 
    25   22   23 ar 
    26    6   24 1  
    27    6   25 1  
    28    7   26 1  
    29    9   27 1  
    30   10   28 1  
    31   11   29 1  
    32   12   30 1  
    33   13   31 1  
    34   15   32 1  
    35   19   33 1  
    36   19   34 1  
    37   21   35 1  
@<TRIPOS>SUBSTRUCTURE
     1 SUB1        1 GROUP

