2gsu_ligand
  -I-interpret- 

 35 37  0  0  0  0  0  0  0  0999 V2000
   29.5860   43.9380   22.7300 P   0  0  0  0  0
   28.3430   44.7100   23.0700 O   0  5  0  0  0
   29.8250   42.6930   23.5730 O   0  5  0  0  0
   30.7940   44.7930   22.5040 O   0  0  0  0  0
   29.2740   43.4120   21.2330 O   0  0  0  0  0
   27.9430   43.1350   20.7540 C   0  0  0  0  0
   27.5620   44.0160   19.5540 C   0  0  0  0  0
   27.1770   43.2010   18.4360 O   0  0  0  0  0
   26.3930   44.9470   19.8320 C   0  0  0  0  0
   26.8460   46.3080   19.9420 O   0  0  0  0  0
   25.4030   44.7610   18.6890 C   0  0  0  0  0
   25.2850   45.9640   17.9180 O   0  0  0  0  0
   25.9170   43.5790   17.8560 C   0  0  0  0  0
   24.9970   42.3930   17.8350 N   0  0  0  0  0
   23.9770   42.1770   18.6850 C   0  0  0  0  0
   23.3240   41.0220   18.4250 N   0  0  0  0  0
   23.9220   40.4530   17.3840 C   0  0  0  0  0
   23.7040   39.2090   16.6220 C   0  0  0  0  0
   22.6940   38.3710   16.9670 N   0  0  0  0  0
   24.5400   38.9570   15.5870 N   0  0  0  0  0
   25.5310   39.8090   15.2560 C   0  0  0  0  0
   25.7730   40.9590   15.9250 N   0  0  0  0  0
   25.0230   41.3460   16.9900 C   0  0  0  0  0
   27.2420   43.3421   21.5625 H   0  0  0  0  0
   27.9078   42.0935   20.4344 H   0  0  0  0  0
   28.4510   44.6112   19.3453 H   0  0  0  0  0
   25.9118   44.7126   20.7815 H   0  0  0  0  0
   27.2661   46.5717   19.1201 H   0  0  0  0  0
   24.3990   44.5486   19.0565 H   0  0  0  0  0
   24.9763   46.6760   18.4832 H   0  0  0  0  0
   25.9966   43.8946   16.8157 H   0  0  0  0  0
   23.7071   42.8570   19.4930 H   0  0  0  0  0
   22.0860   38.6015   17.7529 H   0  0  0  0  0
   22.5428   37.5106   16.4404 H   0  0  0  0  0
   26.1682   39.5587   14.4078 H   0  0  0  0  0
  1  2  1  0  0  0
  1  3  1  0  0  0
  1  4  2  0  0  0
  1  5  1  0  0  0
  5  6  1  0  0  0
  6  7  1  0  0  0
  7  8  1  0  0  0
  7  9  1  0  0  0
  8 13  1  0  0  0
  9 10  1  0  0  0
  9 11  1  0  0  0
 11 12  1  0  0  0
 11 13  1  0  0  0
 13 14  1  0  0  0
 14 15  1  0  0  0
 14 23  1  0  0  0
 15 16  2  0  0  0
 16 17  1  0  0  0
 17 18  4  0  0  0
 17 23  4  0  0  0
 18 19  1  0  0  0
 18 20  4  0  0  0
 20 21  4  0  0  0
 21 22  4  0  0  0
 22 23  4  0  0  0
  6 24  1  0  0  0
  6 25  1  0  0  0
  7 26  1  0  0  0
  9 27  1  0  0  0
 10 28  1  0  0  0
 11 29  1  0  0  0
 12 30  1  0  0  0
 13 31  1  0  0  0
 15 32  1  0  0  0
 19 33  1  0  0  0
 19 34  1  0  0  0
 21 35  1  0  0  0
M  END
$$$$
