1d6w_ligand
  -I-interpret- 

 66 70  0  0  0  0  0  0  0  0999 V2000
   14.1958  -10.2511   19.6383 H   0  0  0  0  0
   12.7324  -11.2159   19.2457 H   0  0  0  0  0
   14.8827  -12.6291   19.0455 H   0  0  0  0  0
   14.1115  -14.5261   20.6570 H   0  0  0  0  0
   12.9755  -13.9341   19.3977 H   0  0  0  0  0
   12.2743  -14.2604   22.1667 H   0  0  0  0  0
   11.3753  -13.2026   21.0267 H   0  0  0  0  0
   13.8308  -12.2726   22.7654 H   0  0  0  0  0
   11.9427  -10.3312   21.3602 H   0  0  0  0  0
   13.6065  -10.0546   21.9781 H   0  0  0  0  0
   15.5251  -11.9037   21.8660 H   0  0  0  0  0
   11.9605  -13.8071   24.2922 H   0  0  0  0  0
   11.5462   -9.8252   23.0406 H   0  0  0  0  0
    9.6189  -12.5150   26.7963 H   0  0  0  0  0
   10.5014  -13.9548   26.2211 H   0  0  0  0  0
   16.8149  -17.8250   23.2770 H   0  0  0  0  0
   13.5570  -11.0860   19.9620 C   0  0  0  0  0
   14.4460  -12.4670   20.0420 C   0  0  0  0  0
   13.4950  -13.6750   20.3320 C   0  0  0  0  0
   12.3520  -13.3920   21.4960 C   0  0  0  0  0
   12.8360  -12.0680   22.3430 C   0  0  0  0  0
   12.9450  -10.7710   21.4690 C   0  0  0  0  0
   15.5870  -12.3820   20.9900 N   0  0  0  0  0
   12.0340  -11.9000   23.2690 C   0  0  0  0  0
   11.6470  -12.8270   24.2480 N   0  0  0  0  0
   10.7930  -12.2360   25.1330 C   0  0  0  0  0
   10.6170  -10.9750   24.7980 N   0  0  0  0  0
   11.4440  -10.7640   23.5830 C   0  0  0  0  0
   10.2640  -12.9570   26.1260 N   0  0  0  0  0
   17.3700  -17.1500   23.9450 C   0  0  0  0  0
   18.0250  -16.1340   23.1370 N   0  0  0  0  0
   19.1440  -16.3230   22.3250 C   0  0  0  0  0
   19.8090  -17.3580   22.1880 O   0  0  0  0  0
   19.3820  -15.1200   21.6610 N   0  0  0  0  0
   18.3990  -14.2200   22.0660 N   0  0  0  0  0
   17.5690  -14.8270   22.9990 C   0  0  0  0  0
   16.5890  -14.3440   23.5610 O   0  0  0  0  0
   20.6360  -14.6960   21.0740 C   0  0  0  0  0
   20.5340  -13.3510   20.3930 C   0  0  0  0  0
   19.4230  -12.5950   20.5510 C   0  0  0  0  0
   18.2030  -12.9610   21.3610 C   0  0  0  0  0
   16.9240  -13.1160   20.5000 C   0  0  0  0  0
   16.9030  -13.8470   19.2370 O   0  0  0  0  0
   18.3370  -17.9690   24.7590 C   0  0  0  0  0
   18.8410  -17.1800   26.2810 S   0  0  0  0  0
   17.6720  -16.3950   26.7250 O   0  0  0  0  0
   19.2610  -18.2340   27.1910 O   0  0  0  0  0
   20.1650  -16.0750   25.8620 C   0  0  0  0  0
   20.1810  -14.7560   26.3300 C   0  0  0  0  0
   21.2000  -13.8930   25.9430 C   0  0  0  0  0
   22.2100  -14.3250   25.1010 C   0  0  0  0  0
   22.2260  -15.6300   24.6340 C   0  0  0  0  0
   21.2070  -16.4980   25.0150 C   0  0  0  0  0
   16.6677  -16.6535   24.6307 H   0  0  0  0  0
   20.9478  -15.4444   20.3306 H   0  0  0  0  0
   21.3932  -14.6315   21.8693 H   0  0  0  0  0
   21.3548  -12.9901   19.7750 H   0  0  0  0  0
   19.4075  -11.6305   20.0456 H   0  0  0  0  0
   18.0355  -12.1607   22.0969 H   0  0  0  0  0
   17.8577  -18.9276   25.0067 H   0  0  0  0  0
   19.2341  -18.1541   24.1499 H   0  0  0  0  0
   19.3987  -14.4072   26.9944 H   0  0  0  0  0
   21.2035  -12.8711   26.3045 H   0  0  0  0  0
   22.9942  -13.6378   24.8046 H   0  0  0  0  0
   23.0215  -15.9699   23.9808 H   0  0  0  0  0
   21.2158  -17.5196   24.6526 H   0  0  0  0  0
 17  1  1  0  0  0
 17  2  1  0  0  0
 18  3  1  0  0  0
 19  4  1  0  0  0
 19  5  1  0  0  0
 20  6  1  0  0  0
 20  7  1  0  0  0
 21  8  1  0  0  0
 22  9  1  0  0  0
 22 10  1  0  0  0
 23 11  1  0  0  0
 25 12  1  0  0  0
 28 13  1  0  0  0
 29 14  1  0  0  0
 29 15  1  0  0  0
 30 16  1  0  0  0
 17 22  1  0  0  0
 18 17  1  0  0  0
 23 18  1  0  0  0
 18 19  1  0  0  0
 19 20  1  0  0  0
 20 21  1  0  0  0
 21 24  1  0  0  0
 22 21  1  0  0  0
 24 28  2  0  0  0
 24 25  1  0  0  0
 25 26  1  0  0  0
 26 29  1  0  0  0
 26 27  2  0  0  0
 28 27  1  0  0  0
 31 30  1  0  0  0
 36 31  1  0  0  0
 31 32  1  0  0  0
 34 32  1  0  0  0
 32 33  2  0  0  0
 34 38  1  0  0  0
 35 34  1  0  0  0
 41 35  1  0  0  0
 35 36  1  0  0  0
 36 37  2  0  0  0
 42 41  1  0  0  0
 41 40  1  0  0  0
 40 39  2  0  0  0
 39 38  1  0  0  0
 42 43  2  0  0  0
 44 45  1  0  0  0
 45 48  1  0  0  0
 45 47  2  0  0  0
 45 46  2  0  0  0
 48 53  4  0  0  0
 48 49  4  0  0  0
 49 50  4  0  0  0
 50 51  4  0  0  0
 52 51  4  0  0  0
 53 52  4  0  0  0
 30 44  1  0  0  0
 42 23  1  0  0  0
 30 54  1  0  0  0
 38 55  1  0  0  0
 38 56  1  0  0  0
 39 57  1  0  0  0
 40 58  1  0  0  0
 41 59  1  0  0  0
 44 60  1  0  0  0
 44 61  1  0  0  0
 49 62  1  0  0  0
 50 63  1  0  0  0
 51 64  1  0  0  0
 52 65  1  0  0  0
 53 66  1  0  0  0
M  END
$$$$
