### 
### Created by X-TOOL on Mon Oct 24 23:55:57 2005
### 

@<TRIPOS>MOLECULE
1d6w_ligand
   66    70     1     0     0
SMALL
GAST_HUCK


@<TRIPOS>ATOM
      1 H171       14.1958  -10.2511   19.6383 H         1 SUB1        0.029
      2 H172       12.7324  -11.2159   19.2457 H         1 SUB1        0.029
      3 H181       14.8827  -12.6291   19.0455 H         1 SUB1        0.056
      4 H191       14.1115  -14.5261   20.6570 H         1 SUB1        0.029
      5 H192       12.9755  -13.9341   19.3977 H         1 SUB1        0.029
      6 H201       12.2743  -14.2604   22.1667 H         1 SUB1        0.029
      7 H202       11.3753  -13.2026   21.0267 H         1 SUB1        0.029
      8 H211       13.8308  -12.2726   22.7654 H         1 SUB1        0.046
      9 H221       11.9427  -10.3312   21.3602 H         1 SUB1        0.029
     10 H222       13.6065  -10.0546   21.9781 H         1 SUB1        0.029
     11 H231       15.5251  -11.9037   21.8660 H         1 SUB1        0.186
     12 H251       11.9605  -13.8071   24.2922 H         1 SUB1        0.234
     13 H281       11.5462   -9.8252   23.0406 H         1 SUB1        0.025
     14 H291        9.6189  -12.5150   26.7963 H         1 SUB1        0.179
     15 H292       10.5014  -13.9548   26.2211 H         1 SUB1        0.179
     16 H301       16.8149  -17.8250   23.2770 H         1 SUB1        0.059
     17 C01        13.5570  -11.0860   19.9620 C.3       1 SUB1       -0.028
     18 C02        14.4460  -12.4670   20.0420 C.3       1 SUB1        0.043
     19 C03        13.4950  -13.6750   20.3320 C.3       1 SUB1       -0.028
     20 C04        12.3520  -13.3920   21.4960 C.3       1 SUB1       -0.038
     21 C05        12.8360  -12.0680   22.3430 C.3       1 SUB1        0.007
     22 C06        12.9450  -10.7710   21.4690 C.3       1 SUB1       -0.038
     23 N20        15.5870  -12.3820   20.9900 N.am      1 SUB1       -0.281
     24 C22        12.0340  -11.9000   23.2690 C.2       1 SUB1        0.041
     25 N23        11.6470  -12.8270   24.2480 N.pl3     1 SUB1       -0.245
     26 C24        10.7930  -12.2360   25.1330 C.2       1 SUB1        0.194
     27 N25        10.6170  -10.9750   24.7980 N.2       1 SUB1       -0.347
     28 C26        11.4440  -10.7640   23.5830 C.2       1 SUB1       -0.051
     29 N27        10.2640  -12.9570   26.1260 N.pl3     1 SUB1       -0.300
     30 C31        17.3700  -17.1500   23.9450 C.3       1 SUB1        0.080
     31 N07        18.0250  -16.1340   23.1370 N.am      1 SUB1       -0.152
     32 C08        19.1440  -16.3230   22.3250 C.2       1 SUB1        0.317
     33 O09        19.8090  -17.3580   22.1880 O.2       1 SUB1       -0.390
     34 N10        19.3820  -15.1200   21.6610 N.am      1 SUB1       -0.135
     35 N11        18.3990  -14.2200   22.0660 N.am      1 SUB1       -0.115
     36 C12        17.5690  -14.8270   22.9990 C.2       1 SUB1        0.319
     37 O13        16.5890  -14.3440   23.5610 O.2       1 SUB1       -0.390
     38 C14        20.6360  -14.6960   21.0740 C.3       1 SUB1        0.078
     39 C15        20.5340  -13.3510   20.3930 C.2       1 SUB1       -0.069
     40 C16        19.4230  -12.5950   20.5510 C.2       1 SUB1       -0.051
     41 C17        18.2030  -12.9610   21.3610 C.3       1 SUB1        0.176
     42 C18        16.9240  -13.1160   20.5000 C.2       1 SUB1        0.212
     43 O19        16.9030  -13.8470   19.2370 O.2       1 SUB1       -0.392
     44 C32        18.3370  -17.9690   24.7590 C.3       1 SUB1        0.095
     45 S33        18.8410  -17.1800   26.2810 S.o2      1 SUB1       -0.001
     46 O34        17.6720  -16.3950   26.7250 O.2       1 SUB1       -0.169
     47 O35        19.2610  -18.2340   27.1910 O.2       1 SUB1       -0.169
     48 C36        20.1650  -16.0750   25.8620 C.ar      1 SUB1        0.088
     49 C37        20.1810  -14.7560   26.3300 C.ar      1 SUB1       -0.037
     50 C38        21.2000  -13.8930   25.9430 C.ar      1 SUB1       -0.060
     51 C39        22.2100  -14.3250   25.1010 C.ar      1 SUB1       -0.062
     52 C40        22.2260  -15.6300   24.6340 C.ar      1 SUB1       -0.060
     53 C41        21.2070  -16.4980   25.0150 C.ar      1 SUB1       -0.037
     54 H302       16.6677  -16.6535   24.6307 H         1 SUB1        0.059
     55 H381       20.9478  -15.4444   20.3306 H         1 SUB1        0.067
     56 H382       21.3932  -14.6315   21.8693 H         1 SUB1        0.067
     57 H391       21.3548  -12.9901   19.7750 H         1 SUB1        0.048
     58 H401       19.4075  -11.6305   20.0456 H         1 SUB1        0.049
     59 H411       18.0355  -12.1607   22.0969 H         1 SUB1        0.094
     60 H441       17.8577  -18.9276   25.0067 H         1 SUB1        0.053
     61 H442       19.2341  -18.1541   24.1499 H         1 SUB1        0.053
     62 H491       19.3987  -14.4072   26.9944 H         1 SUB1        0.064
     63 H501       21.2035  -12.8711   26.3045 H         1 SUB1        0.062
     64 H511       22.9942  -13.6378   24.8046 H         1 SUB1        0.062
     65 H521       23.0215  -15.9699   23.9808 H         1 SUB1        0.062
     66 H531       21.2158  -17.5196   24.6526 H         1 SUB1        0.064
@<TRIPOS>BOND
     1   17    1 1  
     2   17    2 1  
     3   18    3 1  
     4   19    4 1  
     5   19    5 1  
     6   20    6 1  
     7   20    7 1  
     8   21    8 1  
     9   22    9 1  
    10   22   10 1  
    11   23   11 1  
    12   25   12 1  
    13   28   13 1  
    14   29   14 1  
    15   29   15 1  
    16   30   16 1  
    17   17   22 1  
    18   18   17 1  
    19   23   18 1  
    20   18   19 1  
    21   19   20 1  
    22   20   21 1  
    23   21   24 1  
    24   22   21 1  
    25   24   28 2  
    26   24   25 1  
    27   25   26 1  
    28   26   29 1  
    29   26   27 2  
    30   28   27 1  
    31   31   30 1  
    32   36   31 am 
    33   31   32 am 
    34   34   32 am 
    35   32   33 2  
    36   34   38 1  
    37   35   34 1  
    38   41   35 1  
    39   35   36 am 
    40   36   37 2  
    41   42   41 1  
    42   41   40 1  
    43   40   39 2  
    44   39   38 1  
    45   42   43 2  
    46   44   45 1  
    47   45   48 1  
    48   45   47 2  
    49   45   46 2  
    50   48   53 ar 
    51   48   49 ar 
    52   49   50 ar 
    53   50   51 ar 
    54   52   51 ar 
    55   53   52 ar 
    56   30   44 1  
    57   42   23 am 
    58   30   54 1  
    59   38   55 1  
    60   38   56 1  
    61   39   57 1  
    62   40   58 1  
    63   41   59 1  
    64   44   60 1  
    65   44   61 1  
    66   49   62 1  
    67   50   63 1  
    68   51   64 1  
    69   52   65 1  
    70   53   66 1  
@<TRIPOS>SUBSTRUCTURE
     1 SUB1        1 GROUP

