### 
### Created by X-TOOL on Mon Oct 24 22:35:10 2005
### 

@<TRIPOS>MOLECULE
1gjc_ligand
   42    45     1     0     0
SMALL
GAST_HUCK


@<TRIPOS>ATOM
      1 H191        9.6730    0.2505   23.0925 H         1 SUB1        0.057
      2 H201       10.6835    2.2252   21.9414 H         1 SUB1        0.055
      3 H231        8.0136    2.8458   26.1258 H         1 SUB1        0.059
      4 H251        7.3847   -0.5238   27.0249 H         1 SUB1        0.192
      5 H252        7.8534    1.1964   27.0858 H         1 SUB1        0.192
      6 H261        8.4576   -0.9585   23.7071 H         1 SUB1        0.192
      7 H262        7.7248   -1.7267   25.1408 H         1 SUB1        0.192
      8 H281        8.5992    5.4296   25.7044 H         1 SUB1        0.230
      9 H311        9.2277    7.3875   25.7938 H         1 SUB1        0.064
     10 H321        9.6786    9.8004   25.7111 H         1 SUB1        0.054
     11 H331       10.7447   10.7891   23.7452 H         1 SUB1        0.063
     12 H361       10.8098    5.8885   21.8028 H         1 SUB1        0.254
     13 H381       13.2851    8.3339   21.6315 H         1 SUB1        0.060
     14 H391       14.4264    9.4724   19.7787 H         1 SUB1        0.061
     15 H401       13.3381   11.3809   18.6427 H         1 SUB1        0.060
     16 H411       11.0991   12.1312   19.3741 H         1 SUB1        0.061
     17 H421        9.9536   10.9869   21.2348 H         1 SUB1        0.060
     18 C1          8.7610    1.3670   24.6990 C.ar      1 SUB1        0.173
     19 C2          9.5260    1.2400   23.5100 C.ar      1 SUB1       -0.022
     20 C3         10.1020    2.3400   22.8490 C.ar      1 SUB1       -0.058
     21 C4          9.8850    3.5570   23.4180 C.ar      1 SUB1        0.030
     22 C5          9.1700    3.7280   24.5370 C.ar      1 SUB1        0.085
     23 C6          8.5860    2.6760   25.2210 C.ar      1 SUB1        0.014
     24 C7          8.2110    0.2360   25.3310 C.cat     1 SUB1        0.311
     25 N1          7.7860    0.3080   26.5690 N.pl3     1 SUB1       -0.201
     26 N2          8.1250   -0.8970   24.6800 N.pl3     1 SUB1       -0.201
     27 N3         10.2680    4.7330   23.0440 N.2       1 SUB1       -0.311
     28 N4          9.0780    5.0000   24.9000 N.pl3     1 SUB1       -0.251
     29 C8          9.7860    5.5600   23.9200 C.2       1 SUB1        0.137
     30 C1'        10.0470    6.9550   23.8570 C.ar      1 SUB1        0.067
     31 C2'         9.7040    7.8070   24.9150 C.ar      1 SUB1       -0.051
     32 C3'         9.9550    9.1710   24.8730 C.ar      1 SUB1       -0.066
     33 C4'        10.5550    9.7220   23.7660 C.ar      1 SUB1       -0.057
     34 C5'        10.9270    8.9440   22.6670 C.ar      1 SUB1        0.020
     35 C6'        10.6660    7.5610   22.7300 C.ar      1 SUB1        0.121
     36 O6'        11.0360    6.7970   21.6420 O.3       1 SUB1       -0.323
     37 C1'        11.5400    9.5710   21.5850 C.ar      1 SUB1       -0.020
     38 C2'        12.7980    9.1700   21.1430 C.ar      1 SUB1       -0.057
     39 C3'        13.4460    9.8080   20.0970 C.ar      1 SUB1       -0.064
     40 C4'        12.8360   10.8760   19.4600 C.ar      1 SUB1       -0.064
     41 C5'        11.5800   11.2970   19.8720 C.ar      1 SUB1       -0.064
     42 C6'        10.9360   10.6510   20.9230 C.ar      1 SUB1       -0.057
@<TRIPOS>BOND
     1   19    1 1  
     2   20    2 1  
     3   23    3 1  
     4   25    4 1  
     5   25    5 1  
     6   26    6 1  
     7   26    7 1  
     8   28    8 1  
     9   31    9 1  
    10   32   10 1  
    11   33   11 1  
    12   36   12 1  
    13   38   13 1  
    14   39   14 1  
    15   40   15 1  
    16   41   16 1  
    17   42   17 1  
    18   24   18 1  
    19   18   23 ar 
    20   18   19 ar 
    21   19   20 ar 
    22   20   21 ar 
    23   21   27 1  
    24   22   21 ar 
    25   22   28 1  
    26   23   22 ar 
    27   28   29 1  
    28   29   30 1  
    29   27   29 2  
    30   30   35 ar 
    31   30   31 ar 
    32   31   32 ar 
    33   32   33 ar 
    34   34   33 ar 
    35   34   37 ar 
    36   35   34 ar 
    37   35   36 1  
    38   37   42 ar 
    39   37   38 ar 
    40   38   39 ar 
    41   39   40 ar 
    42   41   40 ar 
    43   42   41 ar 
    44   24   26 1  
    45   24   25 1  
@<TRIPOS>SUBSTRUCTURE
     1 SUB1        1 GROUP

