1gjc_ligand
  -I-interpret- 

 42 45  0  0  0  0  0  0  0  0999 V2000
    9.6730    0.2505   23.0925 H   0  0  0  0  0
   10.6835    2.2252   21.9414 H   0  0  0  0  0
    8.0136    2.8458   26.1258 H   0  0  0  0  0
    7.3847   -0.5238   27.0249 H   0  0  0  0  0
    7.8534    1.1964   27.0858 H   0  0  0  0  0
    8.4576   -0.9585   23.7071 H   0  0  0  0  0
    7.7248   -1.7267   25.1408 H   0  0  0  0  0
    8.5992    5.4296   25.7044 H   0  0  0  0  0
    9.2277    7.3875   25.7938 H   0  0  0  0  0
    9.6786    9.8004   25.7111 H   0  0  0  0  0
   10.7447   10.7891   23.7452 H   0  0  0  0  0
   10.8098    5.8885   21.8028 H   0  0  0  0  0
   13.2851    8.3339   21.6315 H   0  0  0  0  0
   14.4264    9.4724   19.7787 H   0  0  0  0  0
   13.3381   11.3809   18.6427 H   0  0  0  0  0
   11.0991   12.1312   19.3741 H   0  0  0  0  0
    9.9536   10.9869   21.2348 H   0  0  0  0  0
    8.7610    1.3670   24.6990 C   0  0  0  0  0
    9.5260    1.2400   23.5100 C   0  0  0  0  0
   10.1020    2.3400   22.8490 C   0  0  0  0  0
    9.8850    3.5570   23.4180 C   0  0  0  0  0
    9.1700    3.7280   24.5370 C   0  0  0  0  0
    8.5860    2.6760   25.2210 C   0  0  0  0  0
    8.2110    0.2360   25.3310 C   0  3  0  0  0
    7.7860    0.3080   26.5690 N   0  0  0  0  0
    8.1250   -0.8970   24.6800 N   0  0  0  0  0
   10.2680    4.7330   23.0440 N   0  0  0  0  0
    9.0780    5.0000   24.9000 N   0  0  0  0  0
    9.7860    5.5600   23.9200 C   0  0  0  0  0
   10.0470    6.9550   23.8570 C   0  0  0  0  0
    9.7040    7.8070   24.9150 C   0  0  0  0  0
    9.9550    9.1710   24.8730 C   0  0  0  0  0
   10.5550    9.7220   23.7660 C   0  0  0  0  0
   10.9270    8.9440   22.6670 C   0  0  0  0  0
   10.6660    7.5610   22.7300 C   0  0  0  0  0
   11.0360    6.7970   21.6420 O   0  0  0  0  0
   11.5400    9.5710   21.5850 C   0  0  0  0  0
   12.7980    9.1700   21.1430 C   0  0  0  0  0
   13.4460    9.8080   20.0970 C   0  0  0  0  0
   12.8360   10.8760   19.4600 C   0  0  0  0  0
   11.5800   11.2970   19.8720 C   0  0  0  0  0
   10.9360   10.6510   20.9230 C   0  0  0  0  0
 19  1  1  0  0  0
 20  2  1  0  0  0
 23  3  1  0  0  0
 25  4  1  0  0  0
 25  5  1  0  0  0
 26  6  1  0  0  0
 26  7  1  0  0  0
 28  8  1  0  0  0
 31  9  1  0  0  0
 32 10  1  0  0  0
 33 11  1  0  0  0
 36 12  1  0  0  0
 38 13  1  0  0  0
 39 14  1  0  0  0
 40 15  1  0  0  0
 41 16  1  0  0  0
 42 17  1  0  0  0
 24 18  1  0  0  0
 18 23  4  0  0  0
 18 19  4  0  0  0
 19 20  4  0  0  0
 20 21  4  0  0  0
 21 27  1  0  0  0
 22 21  4  0  0  0
 22 28  1  0  0  0
 23 22  4  0  0  0
 28 29  1  0  0  0
 29 30  1  0  0  0
 27 29  2  0  0  0
 30 35  4  0  0  0
 30 31  4  0  0  0
 31 32  4  0  0  0
 32 33  4  0  0  0
 34 33  4  0  0  0
 34 37  4  0  0  0
 35 34  4  0  0  0
 35 36  1  0  0  0
 37 42  4  0  0  0
 37 38  4  0  0  0
 38 39  4  0  0  0
 39 40  4  0  0  0
 41 40  4  0  0  0
 42 41  4  0  0  0
 24 26  1  0  0  0
 24 25  1  0  0  0
M  END
$$$$
