2j75_ligand
  -I-interpret- 

 24 24  0  0  0  0  0  0  0  0999 V2000
   -1.6710   10.6170    6.8920 O   0  0  0  0  0
   -1.1700   10.4880    8.2180 C   0  0  0  0  0
   -0.4290   11.7620    8.6050 C   0  0  0  0  0
    0.6620   12.0020    7.7220 O   0  0  0  0  0
    0.1360   11.6520   10.0140 C   0  0  0  0  0
   -0.8990   11.2140   10.9700 N   0  0  0  0  0
   -1.7170   10.0580   10.6180 C   0  0  0  0  0
   -2.3230   10.2650    9.2230 C   0  0  0  0  0
   -3.2310    9.1000    8.8570 C   0  0  0  0  0
    0.5860   12.9450   10.3860 O   0  0  0  0  0
   -2.5760    7.8160    8.9700 O   0  0  0  0  0
   -0.9393   10.7593    6.2871 H   0  0  0  0  0
   -0.4990    9.6296    8.2481 H   0  0  0  0  0
   -1.1482   12.5791    8.5480 H   0  0  0  0  0
    1.1132   12.8077    7.9843 H   0  0  0  0  0
    0.9424   10.9189   10.0306 H   0  0  0  0  0
   -1.5515   11.9951   11.0370 H   0  0  0  0  0
   -2.5179    9.9439   11.3485 H   0  0  0  0  0
   -1.0968    9.1616   10.6151 H   0  0  0  0  0
   -2.9595   11.1496    9.2018 H   0  0  0  0  0
   -3.5331    9.2283    7.8176 H   0  0  0  0  0
   -4.0731    9.1052    9.5491 H   0  0  0  0  0
    1.2603   13.2379    9.7686 H   0  0  0  0  0
   -3.1927    7.1211    8.7283 H   0  0  0  0  0
  1  2  1  0  0  0
  2  3  1  0  0  0
  2  8  1  0  0  0
  3  4  1  0  0  0
  3  5  1  0  0  0
  5  6  1  0  0  0
  5 10  1  0  0  0
  6  7  1  0  0  0
  7  8  1  0  0  0
  8  9  1  0  0  0
  9 11  1  0  0  0
  1 12  1  0  0  0
  2 13  1  0  0  0
  3 14  1  0  0  0
  4 15  1  0  0  0
  5 16  1  0  0  0
  6 17  1  0  0  0
  7 18  1  0  0  0
  7 19  1  0  0  0
  8 20  1  0  0  0
  9 21  1  0  0  0
  9 22  1  0  0  0
 10 23  1  0  0  0
 11 24  1  0  0  0
M  END
$$$$
