### 
### Created by X-TOOL on Sun Jun  3 11:31:45 2007
### 

@<TRIPOS>MOLECULE
2j75_ligand
   24    24     1     0     0
SMALL
GAST_HUCK


@<TRIPOS>ATOM
      1 O4         -1.6710   10.6170    6.8920 O.3       1 SUB1       -0.389
      2 C4         -1.1700   10.4880    8.2180 C.3       1 SUB1        0.091
      3 C3         -0.4290   11.7620    8.6050 C.3       1 SUB1        0.120
      4 O3          0.6620   12.0020    7.7220 O.3       1 SUB1       -0.385
      5 C2          0.1360   11.6520   10.0140 C.3       1 SUB1        0.135
      6 N          -0.8990   11.2140   10.9700 N.3       1 SUB1       -0.289
      7 C7         -1.7170   10.0580   10.6180 C.3       1 SUB1        0.006
      8 C5         -2.3230   10.2650    9.2230 C.3       1 SUB1        0.023
      9 C6         -3.2310    9.1000    8.8570 C.3       1 SUB1        0.051
     10 O2          0.5860   12.9450   10.3860 O.3       1 SUB1       -0.375
     11 O6         -2.5760    7.8160    8.9700 O.3       1 SUB1       -0.395
     12 H          -0.9393   10.7593    6.2871 H         1 SUB1        0.210
     13 H          -0.4990    9.6296    8.2481 H         1 SUB1        0.062
     14 H          -1.1482   12.5791    8.5480 H         1 SUB1        0.066
     15 H           1.1132   12.8077    7.9843 H         1 SUB1        0.210
     16 H           0.9424   10.9189   10.0306 H         1 SUB1        0.079
     17 H          -1.5515   11.9951   11.0370 H         1 SUB1        0.124
     18 H          -2.5179    9.9439   11.3485 H         1 SUB1        0.043
     19 H          -1.0968    9.1616   10.6151 H         1 SUB1        0.043
     20 H          -2.9595   11.1496    9.2018 H         1 SUB1        0.036
     21 H          -3.5331    9.2283    7.8176 H         1 SUB1        0.056
     22 H          -4.0731    9.1052    9.5491 H         1 SUB1        0.056
     23 H           1.2603   13.2379    9.7686 H         1 SUB1        0.212
     24 H          -3.1927    7.1211    8.7283 H         1 SUB1        0.209
@<TRIPOS>BOND
     1    1    2 1  
     2    2    3 1  
     3    2    8 1  
     4    3    4 1  
     5    3    5 1  
     6    5    6 1  
     7    5   10 1  
     8    6    7 1  
     9    7    8 1  
    10    8    9 1  
    11    9   11 1  
    12    1   12 1  
    13    2   13 1  
    14    3   14 1  
    15    4   15 1  
    16    5   16 1  
    17    6   17 1  
    18    7   18 1  
    19    7   19 1  
    20    8   20 1  
    21    9   21 1  
    22    9   22 1  
    23   10   23 1  
    24   11   24 1  
@<TRIPOS>SUBSTRUCTURE
     1 SUB1        1 GROUP

