### 
### Created by X-TOOL on Tue Oct 25 02:42:24 2005
### 

@<TRIPOS>MOLECULE
1vkj_ligand
   38    40     1     0     0
SMALL
GAST_HUCK


@<TRIPOS>ATOM
      1 P1         18.9850   85.5140   28.6730 P.3       1 SUB1        0.206
      2 O1P        19.0000   86.0600   30.0970 O.co2     1 SUB1       -0.535
      3 O2P        19.6970   84.1740   28.6080 O.co2     1 SUB1       -0.535
      4 O3P        17.6240   85.4170   28.0210 O.co2     1 SUB1       -0.535
      5 P2         20.8180   88.6690   22.5970 P.3       1 SUB1        0.205
      6 O4P        22.1350   89.1370   21.9970 O.co2     1 SUB1       -0.535
      7 O5P        19.7360   89.7240   22.4470 O.co2     1 SUB1       -0.535
      8 O6P        20.3500   87.3010   22.1140 O.co2     1 SUB1       -0.535
      9 O5         21.1260   88.5330   24.2000 O.3       1 SUB1       -0.320
     10 C5         20.0680   88.1380   25.0920 C.3       1 SUB1        0.095
     11 C4         20.4570   88.4020   26.5140 C.3       1 SUB1        0.122
     12 O4         20.4640   89.8180   26.7630 O.3       1 SUB1       -0.336
     13 C3         19.5210   87.8500   27.5760 C.3       1 SUB1        0.136
     14 O3         19.9300   86.5220   27.8410 O.3       1 SUB1       -0.314
     15 C2         19.7730   88.7740   28.7720 C.3       1 SUB1        0.143
     16 O2         20.6440   88.1730   29.6860 O.3       1 SUB1       -0.383
     17 C1         20.4720   89.9970   28.1510 C.3       1 SUB1        0.201
     18 N9         19.8770   91.3010   28.4570 N.pl3     1 SUB1       -0.192
     19 C8         20.5720   92.4700   28.6470 C.2       1 SUB1        0.112
     20 N7         19.8140   93.5010   28.9460 N.2       1 SUB1       -0.296
     21 C5         18.5370   92.9750   28.9510 C.ar      1 SUB1        0.105
     22 C6         17.2990   93.5530   29.2310 C.ar      1 SUB1        0.130
     23 N6         17.1690   94.8130   29.6470 N.pl3     1 SUB1       -0.315
     24 N1         16.1910   92.7810   29.0990 N.ar      1 SUB1       -0.270
     25 C2         16.3560   91.4960   28.7640 C.ar      1 SUB1        0.053
     26 N3         17.4910   90.8140   28.5450 N.ar      1 SUB1       -0.271
     27 C4         18.5550   91.6260   28.6360 C.ar      1 SUB1        0.161
     28 H101       19.8687   87.0638   24.9644 H         1 SUB1        0.064
     29 H102       19.1597   88.7104   24.8527 H         1 SUB1        0.064
     30 H111       21.4619   87.9830   26.6712 H         1 SUB1        0.065
     31 H131       18.4670   87.8763   27.2622 H         1 SUB1        0.070
     32 H151       18.8312   89.0520   29.2678 H         1 SUB1        0.068
     33 H161       20.2619   87.3616   29.9993 H         1 SUB1        0.210
     34 H171       21.5111   90.0119   28.5117 H         1 SUB1        0.100
     35 H191       21.6553   92.5368   28.5578 H         1 SUB1        0.135
     36 H231       16.2333   95.1971   29.8416 H         1 SUB1        0.182
     37 H232       18.0042   95.4023   29.7737 H         1 SUB1        0.182
     38 H251       15.4419   90.9239   28.6537 H         1 SUB1        0.100
@<TRIPOS>BOND
     1    1    2 2  
     2    1    3 2  
     3    1    4 2  
     4   14    1 1  
     5    5    6 2  
     6    5    7 2  
     7    5    8 2  
     8    9    5 1  
     9   10    9 1  
    10   11   10 1  
    11   11   12 1  
    12   13   11 1  
    13   12   17 1  
    14   13   14 1  
    15   13   15 1  
    16   15   16 1  
    17   15   17 1  
    18   17   18 1  
    19   18   19 1  
    20   18   27 1  
    21   19   20 2  
    22   20   21 1  
    23   21   22 ar 
    24   21   27 ar 
    25   22   23 1  
    26   22   24 ar 
    27   24   25 ar 
    28   25   26 ar 
    29   26   27 ar 
    30   10   28 1  
    31   10   29 1  
    32   11   30 1  
    33   13   31 1  
    34   15   32 1  
    35   16   33 1  
    36   17   34 1  
    37   19   35 1  
    38   23   36 1  
    39   23   37 1  
    40   25   38 1  
@<TRIPOS>SUBSTRUCTURE
     1 SUB1        1 GROUP

