1vkj_ligand
  -I-interpret- 

 38 40  0  0  0  0  0  0  0  0999 V2000
   18.9850   85.5140   28.6730 P   0  0  0  0  0
   19.0000   86.0600   30.0970 O   0  5  0  0  0
   19.6970   84.1740   28.6080 O   0  5  0  0  0
   17.6240   85.4170   28.0210 O   0  0  0  0  0
   20.8180   88.6690   22.5970 P   0  0  0  0  0
   22.1350   89.1370   21.9970 O   0  5  0  0  0
   19.7360   89.7240   22.4470 O   0  0  0  0  0
   20.3500   87.3010   22.1140 O   0  5  0  0  0
   21.1260   88.5330   24.2000 O   0  0  0  0  0
   20.0680   88.1380   25.0920 C   0  0  0  0  0
   20.4570   88.4020   26.5140 C   0  0  0  0  0
   20.4640   89.8180   26.7630 O   0  0  0  0  0
   19.5210   87.8500   27.5760 C   0  0  0  0  0
   19.9300   86.5220   27.8410 O   0  0  0  0  0
   19.7730   88.7740   28.7720 C   0  0  0  0  0
   20.6440   88.1730   29.6860 O   0  0  0  0  0
   20.4720   89.9970   28.1510 C   0  0  0  0  0
   19.8770   91.3010   28.4570 N   0  0  0  0  0
   20.5720   92.4700   28.6470 C   0  0  0  0  0
   19.8140   93.5010   28.9460 N   0  0  0  0  0
   18.5370   92.9750   28.9510 C   0  0  0  0  0
   17.2990   93.5530   29.2310 C   0  0  0  0  0
   17.1690   94.8130   29.6470 N   0  0  0  0  0
   16.1910   92.7810   29.0990 N   0  0  0  0  0
   16.3560   91.4960   28.7640 C   0  0  0  0  0
   17.4910   90.8140   28.5450 N   0  0  0  0  0
   18.5550   91.6260   28.6360 C   0  0  0  0  0
   19.8687   87.0638   24.9644 H   0  0  0  0  0
   19.1597   88.7104   24.8527 H   0  0  0  0  0
   21.4619   87.9830   26.6712 H   0  0  0  0  0
   18.4670   87.8763   27.2622 H   0  0  0  0  0
   18.8312   89.0520   29.2678 H   0  0  0  0  0
   20.2619   87.3616   29.9993 H   0  0  0  0  0
   21.5111   90.0119   28.5117 H   0  0  0  0  0
   21.6553   92.5368   28.5578 H   0  0  0  0  0
   16.2333   95.1971   29.8416 H   0  0  0  0  0
   18.0042   95.4023   29.7737 H   0  0  0  0  0
   15.4419   90.9239   28.6537 H   0  0  0  0  0
  1  2  1  0  0  0
  1  3  1  0  0  0
  1  4  2  0  0  0
 14  1  1  0  0  0
  5  6  1  0  0  0
  5  7  2  0  0  0
  5  8  1  0  0  0
  9  5  1  0  0  0
 10  9  1  0  0  0
 11 10  1  0  0  0
 11 12  1  0  0  0
 13 11  1  0  0  0
 12 17  1  0  0  0
 13 14  1  0  0  0
 13 15  1  0  0  0
 15 16  1  0  0  0
 15 17  1  0  0  0
 17 18  1  0  0  0
 18 19  1  0  0  0
 18 27  1  0  0  0
 19 20  2  0  0  0
 20 21  1  0  0  0
 21 22  4  0  0  0
 21 27  4  0  0  0
 22 23  1  0  0  0
 22 24  4  0  0  0
 24 25  4  0  0  0
 25 26  4  0  0  0
 26 27  4  0  0  0
 10 28  1  0  0  0
 10 29  1  0  0  0
 11 30  1  0  0  0
 13 31  1  0  0  0
 15 32  1  0  0  0
 16 33  1  0  0  0
 17 34  1  0  0  0
 19 35  1  0  0  0
 23 36  1  0  0  0
 23 37  1  0  0  0
 25 38  1  0  0  0
M  END
$$$$
