### 
### Created by X-TOOL on Mon Oct 24 22:35:52 2005
### 

@<TRIPOS>MOLECULE
1jak_ligand
   30    30     1     0     0
SMALL
GAST_HUCK


@<TRIPOS>ATOM
      1 N1         -4.9210   66.0730   10.1950 N.3       1 SUB1       -0.292
      2 C2         -5.3230   66.5970    8.8640 C.3       1 SUB1        0.122
      3 C3         -4.1330   66.9630    7.8870 C.3       1 SUB1        0.117
      4 C4         -2.9250   67.6140    8.5930 C.3       1 SUB1        0.090
      5 C5         -2.5140   66.7250    9.7690 C.3       1 SUB1        0.023
      6 C6         -1.2940   67.1970   10.5530 C.3       1 SUB1        0.051
      7 C7         -5.8370   64.3160    8.0960 C.2       1 SUB1        0.174
      8 C8         -6.6540   63.2520    7.4090 C.3       1 SUB1        0.026
      9 C9         -3.6480   66.5190   10.7820 C.3       1 SUB1        0.005
     10 N2         -6.2190   65.6240    8.2000 N.am      1 SUB1       -0.269
     11 O7         -4.7800   63.9530    8.5930 O.2       1 SUB1       -0.397
     12 O3         -4.6120   67.8320    6.8690 O.3       1 SUB1       -0.386
     13 O4         -3.3200   68.8920    9.0900 O.3       1 SUB1       -0.389
     14 O6         -0.6840   66.1220   11.2590 O.3       1 SUB1       -0.395
     15 H11        -4.8706   64.9976   10.1098 H         1 SUB1        0.124
     16 H21        -5.8907   67.5224    9.0410 H         1 SUB1        0.075
     17 H31        -3.7847   66.0309    7.4182 H         1 SUB1        0.066
     18 H41        -2.0866   67.7241    7.8895 H         1 SUB1        0.062
     19 H51        -2.2654   65.7437    9.3386 H         1 SUB1        0.036
     20 H61        -1.6072   67.9667   11.2737 H         1 SUB1        0.056
     21 H62        -0.5624   67.6264    9.8527 H         1 SUB1        0.056
     22 H81        -6.1243   62.2896    7.4653 H         1 SUB1        0.047
     23 H82        -6.8026   63.5276    6.3545 H         1 SUB1        0.047
     24 H83        -7.6313   63.1622    7.9058 H         1 SUB1        0.047
     25 H91        -3.3230   65.7625   11.5114 H         1 SUB1        0.043
     26 H92        -3.8244   67.4742   11.2982 H         1 SUB1        0.043
     27 H101       -7.0988   65.9220    7.8296 H         1 SUB1        0.187
     28 H121       -4.8786   68.6568    7.2578 H         1 SUB1        0.210
     29 H131       -3.5762   69.4477    8.3634 H         1 SUB1        0.210
     30 H141        0.0708   66.4460   11.7364 H         1 SUB1        0.209
@<TRIPOS>BOND
     1    2    1 1  
     2    1    9 1  
     3    2    3 1  
     4   10    2 1  
     5    3    4 1  
     6    3   12 1  
     7    4    5 1  
     8    4   13 1  
     9    5    6 1  
    10    9    5 1  
    11    6   14 1  
    12    7    8 1  
    13    7   10 am 
    14    7   11 2  
    15    1   15 1  
    16    2   16 1  
    17    3   17 1  
    18    4   18 1  
    19    5   19 1  
    20    6   20 1  
    21    6   21 1  
    22    8   22 1  
    23    8   23 1  
    24    8   24 1  
    25    9   25 1  
    26    9   26 1  
    27   10   27 1  
    28   12   28 1  
    29   13   29 1  
    30   14   30 1  
@<TRIPOS>SUBSTRUCTURE
     1 SUB1        1 GROUP

