1jak_ligand
  -I-interpret- 

 30 30  0  0  0  0  0  0  0  0999 V2000
   -4.9210   66.0730   10.1950 N   0  0  0  0  0
   -5.3230   66.5970    8.8640 C   0  0  0  0  0
   -4.1330   66.9630    7.8870 C   0  0  0  0  0
   -2.9250   67.6140    8.5930 C   0  0  0  0  0
   -2.5140   66.7250    9.7690 C   0  0  0  0  0
   -1.2940   67.1970   10.5530 C   0  0  0  0  0
   -5.8370   64.3160    8.0960 C   0  0  0  0  0
   -6.6540   63.2520    7.4090 C   0  0  0  0  0
   -3.6480   66.5190   10.7820 C   0  0  0  0  0
   -6.2190   65.6240    8.2000 N   0  0  0  0  0
   -4.7800   63.9530    8.5930 O   0  0  0  0  0
   -4.6120   67.8320    6.8690 O   0  0  0  0  0
   -3.3200   68.8920    9.0900 O   0  0  0  0  0
   -0.6840   66.1220   11.2590 O   0  0  0  0  0
   -4.8706   64.9976   10.1098 H   0  0  0  0  0
   -5.8907   67.5224    9.0410 H   0  0  0  0  0
   -3.7847   66.0309    7.4182 H   0  0  0  0  0
   -2.0866   67.7241    7.8895 H   0  0  0  0  0
   -2.2654   65.7437    9.3386 H   0  0  0  0  0
   -1.6072   67.9667   11.2737 H   0  0  0  0  0
   -0.5624   67.6264    9.8527 H   0  0  0  0  0
   -6.1243   62.2896    7.4653 H   0  0  0  0  0
   -6.8026   63.5276    6.3545 H   0  0  0  0  0
   -7.6313   63.1622    7.9058 H   0  0  0  0  0
   -3.3230   65.7625   11.5114 H   0  0  0  0  0
   -3.8244   67.4742   11.2982 H   0  0  0  0  0
   -7.0988   65.9220    7.8296 H   0  0  0  0  0
   -4.8786   68.6568    7.2578 H   0  0  0  0  0
   -3.5762   69.4477    8.3634 H   0  0  0  0  0
    0.0708   66.4460   11.7364 H   0  0  0  0  0
  2  1  1  0  0  0
  1  9  1  0  0  0
  2  3  1  0  0  0
 10  2  1  0  0  0
  3  4  1  0  0  0
  3 12  1  0  0  0
  4  5  1  0  0  0
  4 13  1  0  0  0
  5  6  1  0  0  0
  9  5  1  0  0  0
  6 14  1  0  0  0
  7  8  1  0  0  0
  7 10  1  0  0  0
  7 11  2  0  0  0
  1 15  1  0  0  0
  2 16  1  0  0  0
  3 17  1  0  0  0
  4 18  1  0  0  0
  5 19  1  0  0  0
  6 20  1  0  0  0
  6 21  1  0  0  0
  8 22  1  0  0  0
  8 23  1  0  0  0
  8 24  1  0  0  0
  9 25  1  0  0  0
  9 26  1  0  0  0
 10 27  1  0  0  0
 12 28  1  0  0  0
 13 29  1  0  0  0
 14 30  1  0  0  0
M  END
$$$$
