### 
### Created by X-TOOL on Mon Oct 24 22:36:17 2005
### 

@<TRIPOS>MOLECULE
1gi8_ligand
   32    34     1     0     0
SMALL
GAST_HUCK


@<TRIPOS>ATOM
      1 H151        9.7863    0.4535   23.1382 H         1 SUB1        0.057
      2 H161       10.9067    2.3737   22.0127 H         1 SUB1        0.055
      3 H191        8.2653    3.1585   26.1514 H         1 SUB1        0.059
      4 H211        7.3876    0.0728   27.1162 H         1 SUB1        0.192
      5 H212        7.9680    1.7568   27.0166 H         1 SUB1        0.192
      6 H221        8.5673   -0.7160   23.8597 H         1 SUB1        0.192
      7 H222        7.7354   -1.3529   25.3036 H         1 SUB1        0.192
      8 H241        8.9913    5.7050   25.7890 H         1 SUB1        0.230
      9 H271        9.6028    7.6904   25.7593 H         1 SUB1        0.064
     10 H281        9.9533   10.1052   25.4787 H         1 SUB1        0.054
     11 H291       11.0276   10.9780   23.4236 H         1 SUB1        0.062
     12 H301       11.7460    9.4143   21.6493 H         1 SUB1        0.055
     13 H321       11.2975    5.9086   21.9196 H         1 SUB1        0.252
     14 C1          8.9340    1.6430   24.7290 C.ar      1 SUB1        0.173
     15 C2          9.6920    1.4510   23.5520 C.ar      1 SUB1       -0.022
     16 C3         10.3200    2.5160   22.9130 C.ar      1 SUB1       -0.058
     17 C4         10.1580    3.7640   23.4840 C.ar      1 SUB1        0.030
     18 C5          9.4560    4.0000   24.6040 C.ar      1 SUB1        0.085
     19 C6          8.8340    2.9700   25.2480 C.ar      1 SUB1        0.014
     20 C7          8.3100    0.5980   25.3930 C.cat     1 SUB1        0.311
     21 N1          7.8570    0.8250   26.5920 N.pl3     1 SUB1       -0.201
     22 N2          8.1960   -0.5750   24.8100 N.pl3     1 SUB1       -0.201
     23 N3         10.6090    4.9150   23.1410 N.2       1 SUB1       -0.310
     24 N4          9.4440    5.2580   24.9790 N.pl3     1 SUB1       -0.251
     25 C8         10.1820    5.7860   24.0150 C.2       1 SUB1        0.136
     26 C1'        10.4530    7.1440   23.8690 C.ar      1 SUB1        0.065
     27 C2'        10.0690    8.0570   24.8520 C.ar      1 SUB1       -0.052
     28 C3'        10.2680    9.4210   24.6990 C.ar      1 SUB1       -0.067
     29 C4'        10.8720    9.9120   23.5440 C.ar      1 SUB1       -0.066
     30 C5'        11.2740    9.0340   22.5480 C.ar      1 SUB1       -0.026
     31 C6'        11.0710    7.6580   22.7020 C.ar      1 SUB1        0.109
     32 O6'        11.4970    6.8070   21.6840 O.3       1 SUB1       -0.326
@<TRIPOS>BOND
     1   15    1 1  
     2   16    2 1  
     3   19    3 1  
     4   21    4 1  
     5   21    5 1  
     6   22    6 1  
     7   22    7 1  
     8   24    8 1  
     9   27    9 1  
    10   28   10 1  
    11   29   11 1  
    12   30   12 1  
    13   32   13 1  
    14   20   14 1  
    15   14   19 ar 
    16   14   15 ar 
    17   15   16 ar 
    18   16   17 ar 
    19   17   23 1  
    20   18   17 ar 
    21   18   24 1  
    22   19   18 ar 
    23   24   25 1  
    24   25   26 1  
    25   23   25 2  
    26   26   31 ar 
    27   26   27 ar 
    28   27   28 ar 
    29   28   29 ar 
    30   30   29 ar 
    31   31   30 ar 
    32   31   32 1  
    33   20   22 1  
    34   20   21 1  
@<TRIPOS>SUBSTRUCTURE
     1 SUB1        1 GROUP

