1gi8_ligand
  -I-interpret- 

 32 34  0  0  0  0  0  0  0  0999 V2000
    9.7863    0.4535   23.1382 H   0  0  0  0  0
   10.9067    2.3737   22.0127 H   0  0  0  0  0
    8.2653    3.1585   26.1514 H   0  0  0  0  0
    7.3876    0.0728   27.1162 H   0  0  0  0  0
    7.9680    1.7568   27.0166 H   0  0  0  0  0
    8.5673   -0.7160   23.8597 H   0  0  0  0  0
    7.7354   -1.3529   25.3036 H   0  0  0  0  0
    8.9913    5.7050   25.7890 H   0  0  0  0  0
    9.6028    7.6904   25.7593 H   0  0  0  0  0
    9.9533   10.1052   25.4787 H   0  0  0  0  0
   11.0276   10.9780   23.4236 H   0  0  0  0  0
   11.7460    9.4143   21.6493 H   0  0  0  0  0
   11.2975    5.9086   21.9196 H   0  0  0  0  0
    8.9340    1.6430   24.7290 C   0  0  0  0  0
    9.6920    1.4510   23.5520 C   0  0  0  0  0
   10.3200    2.5160   22.9130 C   0  0  0  0  0
   10.1580    3.7640   23.4840 C   0  0  0  0  0
    9.4560    4.0000   24.6040 C   0  0  0  0  0
    8.8340    2.9700   25.2480 C   0  0  0  0  0
    8.3100    0.5980   25.3930 C   0  3  0  0  0
    7.8570    0.8250   26.5920 N   0  0  0  0  0
    8.1960   -0.5750   24.8100 N   0  0  0  0  0
   10.6090    4.9150   23.1410 N   0  0  0  0  0
    9.4440    5.2580   24.9790 N   0  0  0  0  0
   10.1820    5.7860   24.0150 C   0  0  0  0  0
   10.4530    7.1440   23.8690 C   0  0  0  0  0
   10.0690    8.0570   24.8520 C   0  0  0  0  0
   10.2680    9.4210   24.6990 C   0  0  0  0  0
   10.8720    9.9120   23.5440 C   0  0  0  0  0
   11.2740    9.0340   22.5480 C   0  0  0  0  0
   11.0710    7.6580   22.7020 C   0  0  0  0  0
   11.4970    6.8070   21.6840 O   0  0  0  0  0
 15  1  1  0  0  0
 16  2  1  0  0  0
 19  3  1  0  0  0
 21  4  1  0  0  0
 21  5  1  0  0  0
 22  6  1  0  0  0
 22  7  1  0  0  0
 24  8  1  0  0  0
 27  9  1  0  0  0
 28 10  1  0  0  0
 29 11  1  0  0  0
 30 12  1  0  0  0
 32 13  1  0  0  0
 20 14  1  0  0  0
 14 19  4  0  0  0
 14 15  4  0  0  0
 15 16  4  0  0  0
 16 17  4  0  0  0
 17 23  1  0  0  0
 18 17  4  0  0  0
 18 24  1  0  0  0
 19 18  4  0  0  0
 24 25  1  0  0  0
 25 26  1  0  0  0
 23 25  2  0  0  0
 26 31  4  0  0  0
 26 27  4  0  0  0
 27 28  4  0  0  0
 28 29  4  0  0  0
 30 29  4  0  0  0
 31 30  4  0  0  0
 31 32  1  0  0  0
 20 22  1  0  0  0
 20 21  1  0  0  0
M  END
$$$$
