### 
### Created by X-TOOL on Mon Oct 24 22:05:22 2005
### 

@<TRIPOS>MOLECULE
1g7q_ligand
  112   113     1     0     0
SMALL
GAST_HUCK


@<TRIPOS>ATOM
      1 N          49.8290   57.5970    4.8090 N.4       1 SUB1        0.240
      2 CA         48.5910   58.3180    4.3920 C.3       1 SUB1        0.089
      3 C          48.2830   58.0060    2.9330 C.2       1 SUB1        0.229
      4 O          49.1260   58.1990    2.0570 O.2       1 SUB1       -0.391
      5 CB         48.7750   59.8270    4.5700 C.3       1 SUB1        0.104
      6 OG         47.5700   60.5120    4.2830 O.3       1 SUB1       -0.387
      7 N          47.0700   57.5220    2.6870 N.am      1 SUB1       -0.261
      8 CA         46.6310   57.1550    1.3440 C.3       1 SUB1        0.128
      9 C          46.5360   58.3690    0.4280 C.2       1 SUB1        0.206
     10 O          46.3920   59.5000    0.8910 O.2       1 SUB1       -0.394
     11 CB         45.2730   56.4460    1.4160 C.3       1 SUB1       -0.024
     12 N          46.6400   58.1500   -0.8900 N.am      1 SUB1       -0.250
     13 CA         46.5510   59.2780   -1.8210 C.3       1 SUB1        0.134
     14 C          45.0970   59.6630   -2.0610 C.2       1 SUB1        0.204
     15 O          44.1860   58.8870   -1.7670 O.2       1 SUB1       -0.394
     16 CB         47.1990   58.7240   -3.0840 C.3       1 SUB1       -0.010
     17 CG         46.7770   57.2750   -3.0470 C.3       1 SUB1       -0.028
     18 CD         47.0170   56.9090   -1.5960 C.3       1 SUB1        0.037
     19 N          44.8800   60.8660   -2.5780 N.am      1 SUB1       -0.261
     20 CA         43.5290   61.3030   -2.8970 C.3       1 SUB1        0.142
     21 C          43.2990   60.8350   -4.3250 C.2       1 SUB1        0.207
     22 O          44.1260   61.0870   -5.2000 O.2       1 SUB1       -0.394
     23 CB         43.4130   62.8280   -2.8260 C.3       1 SUB1        0.027
     24 CG         43.6800   63.3680   -1.4370 C.2       1 SUB1        0.032
     25 OD1        44.8680   63.5020   -1.0670 O.co2     1 SUB1       -0.566
     26 OD2        42.7040   63.6480   -0.7100 O.co2     1 SUB1       -0.566
     27 N          42.1990   60.1330   -4.5650 N.am      1 SUB1       -0.261
     28 CA         41.9110   59.6550   -5.9110 C.3       1 SUB1        0.156
     29 C          40.8090   60.4910   -6.5390 C.2       1 SUB1        0.206
     30 O          39.8980   60.9530   -5.8510 O.2       1 SUB1       -0.394
     31 CB         41.4800   58.1710   -5.9190 C.3       1 SUB1        0.092
     32 OG1        40.3180   58.0010   -5.1000 O.3       1 SUB1       -0.387
     33 CG2        42.6010   57.2890   -5.3990 C.3       1 SUB1       -0.035
     34 N          40.9020   60.6870   -7.8500 N.am      1 SUB1       -0.264
     35 CA         39.9150   61.4780   -8.5710 C.3       1 SUB1        0.131
     36 C          39.3350   60.7070   -9.7520 C.2       1 SUB1        0.206
     37 O          39.9310   59.7410  -10.2200 O.2       1 SUB1       -0.394
     38 CB         40.5530   62.7970   -9.0020 C.3       1 SUB1       -0.011
     39 CG         40.8810   63.6620   -7.7990 C.3       1 SUB1       -0.030
     40 CD         42.0150   64.6390   -8.0280 C.3       1 SUB1        0.051
     41 NE         42.4480   65.2060   -6.7530 N.pl3     1 SUB1       -0.170
     42 CZ         43.4450   66.0730   -6.6100 C.cat     1 SUB1        0.387
     43 NH1        44.1280   66.4820   -7.6710 N.pl3     1 SUB1       -0.183
     44 NH2        43.7480   66.5380   -5.4050 N.pl3     1 SUB1       -0.183
     45 N          38.1460   61.1140  -10.2310 N.am      1 SUB1       -0.250
     46 CA         37.4180   60.5020  -11.3490 C.3       1 SUB1        0.134
     47 C          38.1670   60.1150  -12.6230 C.2       1 SUB1        0.205
     48 O          38.9730   60.8760  -13.1580 O.2       1 SUB1       -0.394
     49 CB         36.3080   61.5130  -11.6210 C.3       1 SUB1       -0.010
     50 CG         35.9860   61.9830  -10.2470 C.3       1 SUB1       -0.028
     51 CD         37.3640   62.2320   -9.6680 C.3       1 SUB1        0.037
     52 N          37.8550   58.9150  -13.1020 N.am      1 SUB1       -0.269
     53 CA         38.4360   58.3620  -14.3170 C.3       1 SUB1        0.079
     54 C          37.6260   58.8050  -15.5380 C.2       1 SUB1        0.053
     55 O          37.9700   58.3930  -16.6680 O.co2     1 SUB1       -0.564
     56 CB         38.4560   56.8400  -14.2240 C.3       1 SUB1       -0.030
     57 OXT        36.6490   59.5610  -15.3500 O.co2     1 SUB1       -0.564
     58 H11        50.1731   57.0465    4.0379 H         1 SUB1        0.202
     59 H21        47.7512   57.9821    5.0181 H         1 SUB1        0.112
     60 H51        49.5623   60.1785    3.8870 H         1 SUB1        0.064
     61 H52        49.0710   60.0353    5.6087 H         1 SUB1        0.064
     62 H61        47.7025   61.4456    4.3985 H         1 SUB1        0.210
     63 H71        46.4344   57.4049    3.4501 H         1 SUB1        0.188
     64 H81        47.3688   56.4591    0.9182 H         1 SUB1        0.080
     65 H111       44.5312   57.1199    1.8694 H         1 SUB1        0.028
     66 H112       45.3658   55.5373    2.0289 H         1 SUB1        0.028
     67 H113       44.9480   56.1723    0.4014 H         1 SUB1        0.028
     68 H131       47.1041   60.1507   -1.4435 H         1 SUB1        0.080
     69 H161       48.2940   58.8219   -3.0468 H         1 SUB1        0.031
     70 H162       46.8161   59.2285   -3.9834 H         1 SUB1        0.031
     71 H171       47.3945   56.6623   -3.7203 H         1 SUB1        0.029
     72 H172       45.7167   57.1613   -3.3170 H         1 SUB1        0.029
     73 H181       48.0726   56.6553   -1.4188 H         1 SUB1        0.052
     74 H182       46.3806   56.0665   -1.2875 H         1 SUB1        0.052
     75 H191       45.6521   61.4778   -2.7499 H         1 SUB1        0.189
     76 H201       42.8011   60.8445   -2.2115 H         1 SUB1        0.084
     77 H231       42.3957   63.1184   -3.1273 H         1 SUB1        0.053
     78 H232       44.1416   63.2696   -3.5218 H         1 SUB1        0.053
     79 H271       41.5647   59.9310   -3.8187 H         1 SUB1        0.188
     80 H281       42.8241   59.7569   -6.5159 H         1 SUB1        0.083
     81 H311       41.2406   57.8742   -6.9508 H         1 SUB1        0.064
     82 H321       39.6110   58.5365   -5.4403 H         1 SUB1        0.210
     83 H331       42.1773   56.4839   -4.7808 H         1 SUB1        0.026
     84 H332       43.2911   57.8930   -4.7917 H         1 SUB1        0.026
     85 H333       43.1468   56.8511   -6.2477 H         1 SUB1        0.026
     86 H341       41.6663   60.2825   -8.3522 H         1 SUB1        0.188
     87 H351       39.0875   61.7066   -7.8833 H         1 SUB1        0.080
     88 H381       39.8525   63.3390   -9.6543 H         1 SUB1        0.031
     89 H382       41.4796   62.5844   -9.5554 H         1 SUB1        0.031
     90 H391       41.1581   63.0014   -6.9643 H         1 SUB1        0.028
     91 H392       39.9811   64.2347   -7.5302 H         1 SUB1        0.028
     92 H401       41.6714   65.4482   -8.6891 H         1 SUB1        0.050
     93 H402       42.8591   64.1142   -8.4992 H         1 SUB1        0.050
     94 H411       41.9443   64.9126   -5.9038 H         1 SUB1        0.198
     95 H431       43.8859   66.1276   -8.6073 H         1 SUB1        0.194
     96 H432       44.9005   67.1540   -7.5586 H         1 SUB1        0.194
     97 H441       43.2110   66.2270   -4.5829 H         1 SUB1        0.194
     98 H442       44.5203   67.2100   -5.2915 H         1 SUB1        0.194
     99 H461       36.9685   59.5699  -10.9760 H         1 SUB1        0.080
    100 H491       35.4381   61.0356  -12.0957 H         1 SUB1        0.031
    101 H492       36.6640   62.3389  -12.2543 H         1 SUB1        0.031
    102 H501       35.4464   61.2122   -9.6771 H         1 SUB1        0.029
    103 H502       35.3893   62.9068  -10.2702 H         1 SUB1        0.029
    104 H511       37.3476   62.1934   -8.5688 H         1 SUB1        0.052
    105 H512       37.7643   63.2030   -9.9948 H         1 SUB1        0.052
    106 H521       37.1869   58.3638  -12.6022 H         1 SUB1        0.190
    107 H531       39.4677   58.7291  -14.4210 H         1 SUB1        0.077
    108 H561       37.4282   56.4664  -14.1061 H         1 SUB1        0.029
    109 H562       39.0593   56.5335  -13.3568 H         1 SUB1        0.029
    110 H563       38.8950   56.4223  -15.1420 H         1 SUB1        0.029
    111 H12        49.6192   56.9913    5.5869 H         1 SUB1        0.202
    112 H13        50.5311   58.2660    5.0838 H         1 SUB1        0.202
@<TRIPOS>BOND
     1    3    2 1  
     2    2    5 1  
     3    2    1 1  
     4    5    6 1  
     5    3    4 2  
     6    9    8 1  
     7    8   11 1  
     8    8    7 1  
     9    9   10 2  
    10   13   12 1  
    11   13   16 1  
    12   14   13 1  
    13   14   15 2  
    14   16   17 1  
    15   17   18 1  
    16   12   18 1  
    17   21   20 1  
    18   20   23 1  
    19   20   19 1  
    20   23   24 1  
    21   24   25 2  
    22   24   26 2  
    23   21   22 2  
    24   29   28 1  
    25   28   31 1  
    26   28   27 1  
    27   31   32 1  
    28   31   33 1  
    29   29   30 2  
    30   36   35 1  
    31   35   38 1  
    32   35   34 1  
    33   38   39 1  
    34   39   40 1  
    35   40   41 1  
    36   41   42 1  
    37   42   43 1  
    38   42   44 1  
    39   36   37 2  
    40   46   45 1  
    41   46   49 1  
    42   47   46 1  
    43   47   48 2  
    44   49   50 1  
    45   50   51 1  
    46   45   51 1  
    47   53   54 1  
    48   53   56 1  
    49   52   53 1  
    50   54   57 2  
    51   54   55 2  
    52    7    3 am 
    53   12    9 am 
    54   19   14 am 
    55   27   21 am 
    56   34   29 am 
    57   45   36 am 
    58   47   52 am 
    59    1   58 1  
    60    2   59 1  
    61    5   60 1  
    62    5   61 1  
    63    6   62 1  
    64    7   63 1  
    65    8   64 1  
    66   11   65 1  
    67   11   66 1  
    68   11   67 1  
    69   13   68 1  
    70   16   69 1  
    71   16   70 1  
    72   17   71 1  
    73   17   72 1  
    74   18   73 1  
    75   18   74 1  
    76   19   75 1  
    77   20   76 1  
    78   23   77 1  
    79   23   78 1  
    80   27   79 1  
    81   28   80 1  
    82   31   81 1  
    83   32   82 1  
    84   33   83 1  
    85   33   84 1  
    86   33   85 1  
    87   34   86 1  
    88   35   87 1  
    89   38   88 1  
    90   38   89 1  
    91   39   90 1  
    92   39   91 1  
    93   40   92 1  
    94   40   93 1  
    95   41   94 1  
    96   43   95 1  
    97   43   96 1  
    98   44   97 1  
    99   44   98 1  
   100   46   99 1  
   101   49  100 1  
   102   49  101 1  
   103   50  102 1  
   104   50  103 1  
   105   51  104 1  
   106   51  105 1  
   107   52  106 1  
   108   53  107 1  
   109   56  108 1  
   110   56  109 1  
   111   56  110 1  
   112    1  111 1  
   113    1  112 1  
@<TRIPOS>SUBSTRUCTURE
     1 SUB1        1 GROUP

