1o3j_ligand
  -I-interpret- 

 35 37  0  0  0  0  0  0  0  0999 V2000
   44.1980   -3.0840   26.0990 C   0  0  0  0  0
   44.6300   -1.7460   26.1740 C   0  0  0  0  0
   44.5890   -1.0420   27.3690 C   0  0  0  0  0
   44.1150   -1.6840   28.4810 C   0  0  0  0  0
   43.6790   -2.9550   28.4740 C   0  0  0  0  0
   43.7050   -3.7020   27.2840 C   0  0  0  0  0
   44.2690   -3.7640   24.8580 C   0  3  0  0  0
   43.8920   -5.0210   24.7680 N   0  0  0  0  0
   44.7160   -3.1280   23.7960 N   0  0  0  0  0
   43.9770   -1.2760   29.6820 N   0  0  0  0  0
   43.2690   -3.3480   29.6670 N   0  0  0  0  0
   43.4790   -2.2480   30.3870 C   0  0  0  0  0
   43.2550   -2.0950   31.7790 C   0  0  0  0  0
   42.9140   -3.1900   32.5880 C   0  0  0  0  0
   42.6990   -3.0160   33.9660 C   0  0  0  0  0
   42.3240   -4.1950   34.8770 C   0  0  0  0  0
   42.8260   -1.7580   34.5460 C   0  0  0  0  0
   43.1690   -0.6520   33.7620 C   0  0  0  0  0
   43.3760   -0.8220   32.3860 C   0  0  0  0  0
   43.6720    0.2990   31.6290 O   0  0  0  0  0
   43.4270    1.1160   34.5720 Br  0  0  0  0  0
   45.0070   -1.2390   25.3060 H   0  0  0  0  0
   44.9160   -0.0170   27.4290 H   0  0  0  0  0
   43.3540   -4.7240   27.2790 H   0  0  0  0  0
   43.5780   -5.4920   25.6030 H   0  0  0  0  0
   43.9060   -5.5780   23.9390 H   0  0  0  0  0
   45.0060   -2.1640   23.8690 H   0  0  0  0  0
   44.8140   -3.5560   22.9030 H   0  0  0  0  0
   44.1930   -0.3950   30.0490 H   0  0  0  0  0
   42.8140   -4.1740   32.1510 H   0  0  0  0  0
   41.4400   -3.9430   35.4470 H   0  0  0  0  0
   42.1280   -5.0800   34.2890 H   0  0  0  0  0
   43.1410   -4.3860   35.5550 H   0  0  0  0  0
   42.6480   -1.6450   35.6060 H   0  0  0  0  0
   43.7874    0.0450   30.7208 H   0  0  0  0  0
  1  2  4  0  0  0
  1  6  4  0  0  0
  1  7  1  0  0  0
  2  3  4  0  0  0
  2 22  1  0  0  0
  3  4  4  0  0  0
  3 23  1  0  0  0
  4  5  4  0  0  0
  4 10  1  0  0  0
  5  6  4  0  0  0
  5 11  1  0  0  0
  6 24  1  0  0  0
  7  8  1  0  0  0
  7  9  1  0  0  0
  8 25  1  0  0  0
  8 26  1  0  0  0
  9 27  1  0  0  0
  9 28  1  0  0  0
 10 12  1  0  0  0
 10 29  1  0  0  0
 11 12  2  0  0  0
 12 13  1  0  0  0
 13 14  4  0  0  0
 13 19  4  0  0  0
 14 15  4  0  0  0
 14 30  1  0  0  0
 15 16  1  0  0  0
 15 17  4  0  0  0
 16 31  1  0  0  0
 16 32  1  0  0  0
 16 33  1  0  0  0
 17 18  4  0  0  0
 17 34  1  0  0  0
 18 19  4  0  0  0
 18 21  1  0  0  0
 19 20  1  0  0  0
 20 35  1  0  0  0
M  END
$$$$
