### 
### Created by X-TOOL on Mon Oct 24 21:58:53 2005
### 

@<TRIPOS>MOLECULE
1o3j_ligand
   35    37     1     0     0
SMALL
GAST_HUCK


@<TRIPOS>ATOM
      1 C1         44.1980   -3.0840   26.0990 C.ar      1 SUB1        0.171
      2 C2         44.6300   -1.7460   26.1740 C.ar      1 SUB1       -0.020
      3 C3         44.5890   -1.0420   27.3690 C.ar      1 SUB1       -0.036
      4 C4         44.1150   -1.6840   28.4810 C.ar      1 SUB1        0.081
      5 C5         43.6790   -2.9550   28.4740 C.ar      1 SUB1        0.034
      6 C6         43.7050   -3.7020   27.2840 C.ar      1 SUB1       -0.007
      7 C7         44.2690   -3.7640   24.8580 C.cat     1 SUB1        0.310
      8 N1         43.8920   -5.0210   24.7680 N.pl3     1 SUB1       -0.201
      9 N2         44.7160   -3.1280   23.7960 N.pl3     1 SUB1       -0.201
     10 N3         43.9770   -1.2760   29.6820 N.pl3     1 SUB1       -0.251
     11 N4         43.2690   -3.3480   29.6670 N.2       1 SUB1       -0.310
     12 C8         43.4790   -2.2480   30.3870 C.2       1 SUB1        0.135
     13 C1'        43.2550   -2.0950   31.7790 C.ar      1 SUB1        0.061
     14 C2'        42.9140   -3.1900   32.5880 C.ar      1 SUB1       -0.047
     15 C3'        42.6990   -3.0160   33.9660 C.ar      1 SUB1       -0.049
     16 C31'       42.3240   -4.1950   34.8770 C.3       1 SUB1       -0.035
     17 C4'        42.8260   -1.7580   34.5460 C.ar      1 SUB1       -0.055
     18 C5'        43.1690   -0.6520   33.7620 C.ar      1 SUB1        0.041
     19 C6'        43.3760   -0.8220   32.3860 C.ar      1 SUB1        0.113
     20 O6'        43.6720    0.2990   31.6290 O.3       1 SUB1       -0.329
     21 BR5'       43.4270    1.1160   34.5720 Br        1 SUB1       -0.058
     22 H21        45.0070   -1.2390   25.3060 H         1 SUB1        0.059
     23 H31        44.9160   -0.0170   27.4290 H         1 SUB1        0.055
     24 H61        43.3540   -4.7240   27.2790 H         1 SUB1        0.060
     25 H81        43.5780   -5.4920   25.6030 H         1 SUB1        0.192
     26 H82        43.9060   -5.5780   23.9390 H         1 SUB1        0.192
     27 H91        45.0060   -2.1640   23.8690 H         1 SUB1        0.192
     28 H92        44.8140   -3.5560   22.9030 H         1 SUB1        0.192
     29 H101       44.1930   -0.3950   30.0490 H         1 SUB1        0.230
     30 H141       42.8140   -4.1740   32.1510 H         1 SUB1        0.059
     31 H161       41.4400   -3.9430   35.4470 H         1 SUB1        0.037
     32 H162       42.1280   -5.0800   34.2890 H         1 SUB1        0.037
     33 H163       43.1410   -4.3860   35.5550 H         1 SUB1        0.037
     34 H171       42.6480   -1.6450   35.6060 H         1 SUB1        0.060
     35 H201       43.7874    0.0450   30.7208 H         1 SUB1        0.251
@<TRIPOS>BOND
     1    1    2 ar 
     2    1    6 ar 
     3    1    7 1  
     4    2    3 ar 
     5    2   22 1  
     6    3    4 ar 
     7    3   23 1  
     8    4    5 ar 
     9    4   10 1  
    10    5    6 ar 
    11    5   11 1  
    12    6   24 1  
    13    7    8 1  
    14    7    9 1  
    15    8   25 1  
    16    8   26 1  
    17    9   27 1  
    18    9   28 1  
    19   10   12 1  
    20   10   29 1  
    21   11   12 2  
    22   12   13 1  
    23   13   14 ar 
    24   13   19 ar 
    25   14   15 ar 
    26   14   30 1  
    27   15   16 1  
    28   15   17 ar 
    29   16   31 1  
    30   16   32 1  
    31   16   33 1  
    32   17   18 ar 
    33   17   34 1  
    34   18   19 ar 
    35   18   21 1  
    36   19   20 1  
    37   20   35 1  
@<TRIPOS>SUBSTRUCTURE
     1 SUB1        1 GROUP

