### 
### Created by X-TOOL on Tue Oct 25 02:06:43 2005
### 

@<TRIPOS>MOLECULE
2ada_ligand
   31    33     1     0     0
SMALL
GAST_HUCK


@<TRIPOS>ATOM
      1 N1          1.3740   21.0250   39.0150 N.am      1 SUB1       -0.204
      2 C2          2.3800   20.6620   39.8120 C.2       1 SUB1        0.127
      3 N3          3.5440   20.1910   39.3810 N.2       1 SUB1       -0.268
      4 C4          3.7140   20.0710   38.0510 C.2       1 SUB1        0.135
      5 C5          2.7580   20.4160   37.1670 C.2       1 SUB1        0.104
      6 C6          1.4950   20.9620   37.6150 C.2       1 SUB1        0.220
      7 O6          1.2590   22.2410   37.0340 O.2       1 SUB1       -0.407
      8 N7          3.2090   20.1790   35.9160 N.2       1 SUB1       -0.315
      9 C8          4.4450   19.6980   36.0730 C.2       1 SUB1        0.100
     10 N9          4.7840   19.6280   37.3620 N.pl3     1 SUB1       -0.205
     11 C1'         5.9050   18.9790   37.9010 C.3       1 SUB1        0.200
     12 C2'         6.2900   17.7450   37.0850 C.3       1 SUB1        0.139
     13 O2'         6.5180   16.7490   38.0750 O.3       1 SUB1       -0.384
     14 C3'         7.6790   18.0480   36.5420 C.3       1 SUB1        0.115
     15 O3'         8.5210   16.8940   36.5830 O.3       1 SUB1       -0.386
     16 C4'         8.1990   19.1680   37.4400 C.3       1 SUB1        0.114
     17 O4'         7.0470   19.8500   37.9560 O.3       1 SUB1       -0.336
     18 C5'         9.1110   20.1360   36.6980 C.3       1 SUB1        0.073
     19 O5'         8.6500   20.4200   35.3740 O.3       1 SUB1       -0.392
     20 H11         0.5185   21.3477   39.4200 H         1 SUB1        0.256
     21 H21         2.2371   20.7583   40.8873 H         1 SUB1        0.149
     22 H91         5.0951   19.4001   35.2517 H         1 SUB1        0.121
     23 H111        5.6649   18.6694   38.9288 H         1 SUB1        0.100
     24 H121        5.5666   17.4659   36.3048 H         1 SUB1        0.068
     25 H131        6.7661   15.9351   37.6525 H         1 SUB1        0.210
     26 H141        7.6175   18.4110   35.5055 H         1 SUB1        0.065
     27 H151        8.6070   16.5979   37.4815 H         1 SUB1        0.210
     28 H161        8.7790   18.7349   38.2682 H         1 SUB1        0.065
     29 H181        9.1572   21.0838   37.2543 H         1 SUB1        0.058
     30 H182       10.1163   19.6960   36.6227 H         1 SUB1        0.058
     31 H191        9.2496   21.0255   34.9542 H         1 SUB1        0.209
@<TRIPOS>BOND
     1    2    1 am 
     2    1    6 am 
     3    2    3 2  
     4    3    4 1  
     5    4    5 2  
     6    4   10 1  
     7    5    6 1  
     8    5    8 1  
     9    6    7 2  
    10    8    9 2  
    11   10    9 1  
    12   10   11 1  
    13   11   12 1  
    14   11   17 1  
    15   12   13 1  
    16   12   14 1  
    17   14   15 1  
    18   14   16 1  
    19   16   17 1  
    20   16   18 1  
    21   18   19 1  
    22    1   20 1  
    23    2   21 1  
    24    9   22 1  
    25   11   23 1  
    26   12   24 1  
    27   13   25 1  
    28   14   26 1  
    29   15   27 1  
    30   16   28 1  
    31   18   29 1  
    32   18   30 1  
    33   19   31 1  
@<TRIPOS>SUBSTRUCTURE
     1 SUB1        1 GROUP

