1cgl_ligand
  -I-interpret- 

 91 93  0  0  0  0  0  0  0  0999 V2000
   29.6830   45.3880    1.2040 C   0  0  0  0  0
   29.6440   45.4640    2.4450 O   0  0  0  0  0
   30.0780   46.3940    0.3160 O   0  0  0  0  0
   30.6030   47.6530    0.7460 C   0  0  0  0  0
   31.9180   47.4290    1.4500 C   0  0  0  0  0
   32.9890   46.8630    0.7660 C   0  0  0  0  0
   34.1630   46.5850    1.4340 C   0  0  0  0  0
   34.2280   46.9030    2.7900 C   0  0  0  0  0
   33.1780   47.5150    3.4670 C   0  0  0  0  0
   32.0330   47.7530    2.7930 C   0  0  0  0  0
   29.8550   48.2040    1.3500 H   0  0  0  0  0
   30.7610   48.2930   -0.1440 H   0  0  0  0  0
   32.9130   46.5920   -0.2780 H   0  0  0  0  0
   34.9900   46.1210    0.9230 H   0  0  0  0  0
   35.1370   46.6740    3.3240 H   0  0  0  0  0
   33.2690   47.7990    4.5070 H   0  0  0  0  0
   31.2040   48.2140    3.3150 H   0  0  0  0  0
   29.3370   44.2710    0.6500 N   0  0  0  0  0
   29.3740   44.1540   -0.8010 C   0  0  0  0  0
   29.2450   42.7180   -1.1400 C   0  0  0  0  0
   30.5770   41.9770   -1.0070 C   0  0  0  0  0
   31.5200   42.0330   -2.2490 C   0  0  0  0  0
   31.8150   43.0020   -2.9320 O   0  0  0  0  0
   31.9890   40.8170   -2.6590 O   0  5  0  0  0
   29.1540   43.4550    1.2540 H   0  0  0  0  0
   28.5360   44.7300   -1.2240 H   0  0  0  0  0
   30.2820   44.5990   -1.2600 H   0  0  0  0  0
   28.8930   42.6630   -2.1890 H   0  0  0  0  0
   28.3820   42.3010   -0.5690 H   0  0  0  0  0
   31.1380   42.3060   -0.1180 H   0  0  0  0  0
   30.1420   40.5960   -0.7300 N   0  0  0  0  0
   29.4570   39.7430   -1.7960 C   0  0  0  0  0
   28.0090   39.6850   -1.3350 C   0  0  0  0  0
   27.7410   39.7360   -0.1160 O   0  0  0  0  0
   30.1810   38.3640   -1.8290 C   0  0  0  0  0
   29.7670   37.2800   -2.8150 C   0  0  0  0  0
   30.0320   37.6930   -4.2710 C   0  0  0  0  0
   30.3720   35.9000   -2.4850 C   0  0  0  0  0
   29.5300   40.2150   -2.8030 H   0  0  0  0  0
   31.2810   38.5220   -1.9350 H   0  0  0  0  0
   30.1230   37.9390   -0.8020 H   0  0  0  0  0
   28.6840   37.1160   -2.6750 H   0  0  0  0  0
   30.6450   38.6290   -4.3980 H   0  0  0  0  0
   30.3960   36.9160   -4.9770 H   0  0  0  0  0
   29.0220   37.9910   -4.6320 H   0  0  0  0  0
   30.9280   35.7990   -1.5560 H   0  0  0  0  0
   29.5360   35.2920   -2.1140 H   0  0  0  0  0
   30.5880   35.2150   -3.3250 H   0  0  0  0  0
   27.0850   39.5910   -2.3230 N   0  0  0  0  0
   25.6380   39.3850   -2.0580 C   0  0  0  0  0
   25.2620   37.9340   -2.4320 C   0  0  0  0  0
   25.7440   37.3740   -3.3770 O   0  0  0  0  0
   24.7710   40.3870   -2.8840 C   0  0  0  0  0
   24.8660   41.8600   -2.4630 C   0  0  0  0  0
   24.1990   42.2970   -1.3430 C   0  0  0  0  0
   25.8150   42.6850   -3.0750 C   0  0  0  0  0
   24.5580   43.4970   -0.7690 C   0  0  0  0  0
   26.1760   43.8730   -2.4760 C   0  0  0  0  0
   25.5690   44.2730   -1.3150 C   0  0  0  0  0
   27.4800   39.3980   -3.2500 H   0  0  0  0  0
   25.4330   39.5630   -0.9840 H   0  0  0  0  0
   24.9750   40.2750   -3.9690 H   0  0  0  0  0
   23.7040   40.0860   -2.8230 H   0  0  0  0  0
   23.4110   41.7110   -0.8990 H   0  0  0  0  0
   26.3840   42.3420   -3.9320 H   0  0  0  0  0
   24.0310   43.8500    0.1060 H   0  0  0  0  0
   26.9740   44.4580   -2.9070 H   0  0  0  0  0
   21.0320   39.1800   -5.5530 O   0  0  0  0  0
   20.3680   39.3490   -4.3070 C   0  0  0  0  0
   21.1240   38.7690   -3.0680 C   0  0  0  0  0
   21.6510   37.4420   -3.3850 N   0  0  0  0  0
   22.2890   37.3510   -4.7210 C   0  0  0  0  0
   21.2520   37.8310   -5.7950 C   0  0  0  0  0
   22.1130   36.5570   -2.2810 C   0  0  0  0  0
   23.6060   36.1880   -2.1840 C   0  0  0  0  0
   24.3440   37.3620   -1.7460 N   0  0  0  0  0
   21.7350   36.9300   -1.3030 H   0  0  0  0  0
   21.5550   35.6080   -2.3860 H   0  0  0  0  0
   23.7350   35.3910   -1.4310 H   0  0  0  0  0
   23.9620   35.7440   -3.1330 H   0  0  0  0  0
   23.9070   37.9980   -1.0620 H   0  0  0  0  0
   29.4543   40.6546    0.1007 H   0  0  0  0  0
   25.8771   45.1902   -0.8263 H   0  0  0  0  0
   19.3892   38.8514   -4.3724 H   0  0  0  0  0
   20.2212   40.4267   -4.1426 H   0  0  0  0  0
   20.4287   38.6924   -2.2191 H   0  0  0  0  0
   21.9556   39.4380   -2.8017 H   0  0  0  0  0
   22.5801   36.3099   -4.9242 H   0  0  0  0  0
   23.1811   37.9938   -4.7519 H   0  0  0  0  0
   21.6586   37.6875   -6.8069 H   0  0  0  0  0
   20.3122   37.2683   -5.6943 H   0  0  0  0  0
  1  2  2  0  0  0
  1  3  1  0  0  0
 18  1  1  0  0  0
  3  4  1  0  0  0
  4  5  1  0  0  0
  4 11  1  0  0  0
  4 12  1  0  0  0
  5  6  4  0  0  0
  5 10  4  0  0  0
  6  7  4  0  0  0
  6 13  1  0  0  0
  7  8  4  0  0  0
  7 14  1  0  0  0
  9  8  4  0  0  0
  8 15  1  0  0  0
 10  9  4  0  0  0
  9 16  1  0  0  0
 10 17  1  0  0  0
 19 18  1  0  0  0
 18 25  1  0  0  0
 20 19  1  0  0  0
 19 26  1  0  0  0
 19 27  1  0  0  0
 21 20  1  0  0  0
 20 28  1  0  0  0
 20 29  1  0  0  0
 21 22  1  0  0  0
 21 30  1  0  0  0
 31 21  1  0  0  0
 22 23  2  0  0  0
 22 24  1  0  0  0
 32 31  1  0  0  0
 33 32  1  0  0  0
 32 35  1  0  0  0
 32 39  1  0  0  0
 33 34  2  0  0  0
 49 33  1  0  0  0
 35 36  1  0  0  0
 35 40  1  0  0  0
 35 41  1  0  0  0
 36 37  1  0  0  0
 36 38  1  0  0  0
 36 42  1  0  0  0
 37 43  1  0  0  0
 37 44  1  0  0  0
 37 45  1  0  0  0
 38 46  1  0  0  0
 38 47  1  0  0  0
 38 48  1  0  0  0
 50 49  1  0  0  0
 49 60  1  0  0  0
 51 50  1  0  0  0
 50 53  1  0  0  0
 50 61  1  0  0  0
 51 52  2  0  0  0
 76 51  1  0  0  0
 53 54  1  0  0  0
 53 62  1  0  0  0
 53 63  1  0  0  0
 54 55  4  0  0  0
 54 56  4  0  0  0
 55 57  4  0  0  0
 55 64  1  0  0  0
 56 58  4  0  0  0
 56 65  1  0  0  0
 57 59  4  0  0  0
 57 66  1  0  0  0
 58 59  4  0  0  0
 58 67  1  0  0  0
 69 68  1  0  0  0
 73 68  1  0  0  0
 70 69  1  0  0  0
 71 70  1  0  0  0
 71 72  1  0  0  0
 74 71  1  0  0  0
 72 73  1  0  0  0
 75 74  1  0  0  0
 74 77  1  0  0  0
 74 78  1  0  0  0
 75 76  1  0  0  0
 75 79  1  0  0  0
 75 80  1  0  0  0
 76 81  1  0  0  0
 31 82  1  0  0  0
 59 83  1  0  0  0
 69 84  1  0  0  0
 69 85  1  0  0  0
 70 86  1  0  0  0
 70 87  1  0  0  0
 72 88  1  0  0  0
 72 89  1  0  0  0
 73 90  1  0  0  0
 73 91  1  0  0  0
M  END
$$$$
