### 
### Created by X-TOOL on Tue Oct 25 02:06:41 2005
### 

@<TRIPOS>MOLECULE
1cgl_ligand
   91    93     1     0     0
SMALL
GAST_HUCK


@<TRIPOS>ATOM
      1 C          29.6830   45.3880    1.2040 C.2       1 SUB1        0.322
      2 O1         29.6440   45.4640    2.4450 O.2       1 SUB1       -0.377
      3 O2         30.0780   46.3940    0.3160 O.3       1 SUB1       -0.251
      4 C1'        30.6030   47.6530    0.7460 C.3       1 SUB1        0.111
      5 C1         31.9180   47.4290    1.4500 C.ar      1 SUB1       -0.013
      6 C2         32.9890   46.8630    0.7660 C.ar      1 SUB1       -0.058
      7 C3         34.1630   46.5850    1.4340 C.ar      1 SUB1       -0.068
      8 C4         34.2280   46.9030    2.7900 C.ar      1 SUB1       -0.069
      9 C5         33.1780   47.5150    3.4670 C.ar      1 SUB1       -0.068
     10 C6         32.0330   47.7530    2.7930 C.ar      1 SUB1       -0.058
     11 H41        29.8550   48.2040    1.3500 H         1 SUB1        0.078
     12 H42        30.7610   48.2930   -0.1440 H         1 SUB1        0.078
     13 H61        32.9130   46.5920   -0.2780 H         1 SUB1        0.056
     14 H71        34.9900   46.1210    0.9230 H         1 SUB1        0.060
     15 H81        35.1370   46.6740    3.3240 H         1 SUB1        0.056
     16 H91        33.2690   47.7990    4.5070 H         1 SUB1        0.060
     17 H101       31.2040   48.2140    3.3150 H         1 SUB1        0.056
     18 N          29.3370   44.2710    0.6500 N.am      1 SUB1       -0.262
     19 CA         29.3740   44.1540   -0.8010 C.3       1 SUB1        0.037
     20 CB         29.2450   42.7180   -1.1400 C.3       1 SUB1       -0.006
     21 CG         30.5770   41.9770   -1.0070 C.3       1 SUB1        0.051
     22 CD         31.5200   42.0330   -2.2490 C.2       1 SUB1        0.045
     23 OE1        31.8150   43.0020   -2.9320 O.co2     1 SUB1       -0.565
     24 OE2        31.9890   40.8170   -2.6590 O.co2     1 SUB1       -0.565
     25 H181       29.1540   43.4550    1.2540 H         1 SUB1        0.187
     26 H191       28.5360   44.7300   -1.2240 H         1 SUB1        0.052
     27 H192       30.2820   44.5990   -1.2600 H         1 SUB1        0.052
     28 H201       28.8930   42.6630   -2.1890 H         1 SUB1        0.034
     29 H202       28.3820   42.3010   -0.5690 H         1 SUB1        0.034
     30 H211       31.1380   42.3060   -0.1180 H         1 SUB1        0.068
     31 N          30.1420   40.5960   -0.7300 N.3       1 SUB1       -0.279
     32 CA         29.4570   39.7430   -1.7960 C.3       1 SUB1        0.101
     33 C          28.0090   39.6850   -1.3350 C.2       1 SUB1        0.196
     34 O          27.7410   39.7360   -0.1160 O.2       1 SUB1       -0.395
     35 CB         30.1810   38.3640   -1.8290 C.3       1 SUB1       -0.018
     36 CG         29.7670   37.2800   -2.8150 C.3       1 SUB1       -0.043
     37 CD1        30.0320   37.6930   -4.2710 C.3       1 SUB1       -0.062
     38 CD2        30.3720   35.9000   -2.4850 C.3       1 SUB1       -0.062
     39 H321       29.5300   40.2150   -2.8030 H         1 SUB1        0.071
     40 H351       31.2810   38.5220   -1.9350 H         1 SUB1        0.031
     41 H352       30.1230   37.9390   -0.8020 H         1 SUB1        0.031
     42 H361       28.6840   37.1160   -2.6750 H         1 SUB1        0.030
     43 H371       30.6450   38.6290   -4.3980 H         1 SUB1        0.023
     44 H372       30.3960   36.9160   -4.9770 H         1 SUB1        0.023
     45 H373       29.0220   37.9910   -4.6320 H         1 SUB1        0.023
     46 H381       30.9280   35.7990   -1.5560 H         1 SUB1        0.023
     47 H382       29.5360   35.2920   -2.1140 H         1 SUB1        0.023
     48 H383       30.5880   35.2150   -3.3250 H         1 SUB1        0.023
     49 N          27.0850   39.5910   -2.3230 N.am      1 SUB1       -0.262
     50 CA         25.6380   39.3850   -2.0580 C.3       1 SUB1        0.140
     51 C          25.2620   37.9340   -2.4320 C.2       1 SUB1        0.204
     52 O          25.7440   37.3740   -3.3770 O.2       1 SUB1       -0.394
     53 CB         24.7710   40.3870   -2.8840 C.3       1 SUB1        0.021
     54 CG         24.8660   41.8600   -2.4630 C.ar      1 SUB1       -0.039
     55 CD1        24.1990   42.2970   -1.3430 C.ar      1 SUB1       -0.060
     56 CD2        25.8150   42.6850   -3.0750 C.ar      1 SUB1       -0.060
     57 CE1        24.5580   43.4970   -0.7690 C.ar      1 SUB1       -0.069
     58 CE2        26.1760   43.8730   -2.4760 C.ar      1 SUB1       -0.069
     59 CZ         25.5690   44.2730   -1.3150 C.ar      1 SUB1       -0.069
     60 H491       27.4800   39.3980   -3.2500 H         1 SUB1        0.189
     61 H501       25.4330   39.5630   -0.9840 H         1 SUB1        0.082
     62 H531       24.9750   40.2750   -3.9690 H         1 SUB1        0.047
     63 H532       23.7040   40.0860   -2.8230 H         1 SUB1        0.047
     64 H551       23.4110   41.7110   -0.8990 H         1 SUB1        0.056
     65 H561       26.3840   42.3420   -3.9320 H         1 SUB1        0.056
     66 H571       24.0310   43.8500    0.1060 H         1 SUB1        0.060
     67 H581       26.9740   44.4580   -2.9070 H         1 SUB1        0.060
     68 O1         21.0320   39.1800   -5.5530 O.3       1 SUB1       -0.377
     69 C2         20.3680   39.3490   -4.3070 C.3       1 SUB1        0.060
     70 C3         21.1240   38.7690   -3.0680 C.3       1 SUB1        0.023
     71 N4         21.6510   37.4420   -3.3850 N.3       1 SUB1       -0.296
     72 C5         22.2890   37.3510   -4.7210 C.3       1 SUB1        0.023
     73 C6         21.2520   37.8310   -5.7950 C.3       1 SUB1        0.060
     74 C1'        22.1130   36.5570   -2.2810 C.3       1 SUB1        0.019
     75 C2'        23.6060   36.1880   -2.1840 C.3       1 SUB1        0.044
     76 N2'        24.3440   37.3620   -1.7460 N.am      1 SUB1       -0.284
     77 H741       21.7350   36.9300   -1.3030 H         1 SUB1        0.045
     78 H742       21.5550   35.6080   -2.3860 H         1 SUB1        0.045
     79 H751       23.7350   35.3910   -1.4310 H         1 SUB1        0.053
     80 H752       23.9620   35.7440   -3.1330 H         1 SUB1        0.053
     81 H761       23.9070   37.9980   -1.0620 H         1 SUB1        0.185
     82 H311       29.4543   40.6546    0.1007 H         1 SUB1        0.129
     83 H591       25.8771   45.1902   -0.8263 H         1 SUB1        0.056
     84 H691       19.3892   38.8514   -4.3724 H         1 SUB1        0.057
     85 H692       20.2212   40.4267   -4.1426 H         1 SUB1        0.057
     86 H701       20.4287   38.6924   -2.2191 H         1 SUB1        0.045
     87 H702       21.9556   39.4380   -2.8017 H         1 SUB1        0.045
     88 H721       22.5801   36.3099   -4.9242 H         1 SUB1        0.045
     89 H722       23.1811   37.9938   -4.7519 H         1 SUB1        0.045
     90 H731       21.6586   37.6875   -6.8069 H         1 SUB1        0.057
     91 H732       20.3122   37.2683   -5.6943 H         1 SUB1        0.057
@<TRIPOS>BOND
     1    1    2 2  
     2    1    3 1  
     3   18    1 am 
     4    3    4 1  
     5    4    5 1  
     6    4   11 1  
     7    4   12 1  
     8    5    6 ar 
     9    5   10 ar 
    10    6    7 ar 
    11    6   13 1  
    12    7    8 ar 
    13    7   14 1  
    14    9    8 ar 
    15    8   15 1  
    16   10    9 ar 
    17    9   16 1  
    18   10   17 1  
    19   19   18 1  
    20   18   25 1  
    21   20   19 1  
    22   19   26 1  
    23   19   27 1  
    24   21   20 1  
    25   20   28 1  
    26   20   29 1  
    27   21   22 1  
    28   21   30 1  
    29   31   21 1  
    30   22   23 2  
    31   22   24 2  
    32   32   31 1  
    33   33   32 1  
    34   32   35 1  
    35   32   39 1  
    36   33   34 2  
    37   49   33 am 
    38   35   36 1  
    39   35   40 1  
    40   35   41 1  
    41   36   37 1  
    42   36   38 1  
    43   36   42 1  
    44   37   43 1  
    45   37   44 1  
    46   37   45 1  
    47   38   46 1  
    48   38   47 1  
    49   38   48 1  
    50   50   49 1  
    51   49   60 1  
    52   51   50 1  
    53   50   53 1  
    54   50   61 1  
    55   51   52 2  
    56   76   51 am 
    57   53   54 1  
    58   53   62 1  
    59   53   63 1  
    60   54   55 ar 
    61   54   56 ar 
    62   55   57 ar 
    63   55   64 1  
    64   56   58 ar 
    65   56   65 1  
    66   57   59 ar 
    67   57   66 1  
    68   58   59 ar 
    69   58   67 1  
    70   69   68 1  
    71   73   68 1  
    72   70   69 1  
    73   71   70 1  
    74   71   72 1  
    75   74   71 1  
    76   72   73 1  
    77   75   74 1  
    78   74   77 1  
    79   74   78 1  
    80   75   76 1  
    81   75   79 1  
    82   75   80 1  
    83   76   81 1  
    84   31   82 1  
    85   59   83 1  
    86   69   84 1  
    87   69   85 1  
    88   70   86 1  
    89   70   87 1  
    90   72   88 1  
    91   72   89 1  
    92   73   90 1  
    93   73   91 1  
@<TRIPOS>SUBSTRUCTURE
     1 SUB1        1 GROUP

