### 
### Created by X-TOOL on Tue Oct 25 00:26:51 2005
### 

@<TRIPOS>MOLECULE
1mfd_ligand
   67    69     1     0     0
SMALL
GAST_HUCK


@<TRIPOS>ATOM
      1 C1         20.6750   40.5530   23.0620 C.3       1 SUB1        0.189
      2 C2         19.5720   41.2010   23.9930 C.3       1 SUB1        0.134
      3 C3         20.1140   42.4320   24.7620 C.3       1 SUB1        0.114
      4 C4         21.5470   42.1810   25.2890 C.3       1 SUB1        0.112
      5 C5         22.4370   41.7720   24.1090 C.3       1 SUB1        0.113
      6 C6         23.9700   41.7110   24.2210 C.3       1 SUB1        0.073
      7 O2         18.3600   41.6300   23.3570 O.3       1 SUB1       -0.384
      8 O3         19.2250   42.6400   25.8700 O.3       1 SUB1       -0.386
      9 O4         21.4030   41.1540   26.2400 O.3       1 SUB1       -0.387
     10 O5         21.9360   40.4880   23.6930 O.3       1 SUB1       -0.340
     11 O6         24.5790   42.7700   23.4630 O.3       1 SUB1       -0.392
     12 C1         21.9620   41.6870   19.8440 C.3       1 SUB1        0.188
     13 C2         21.0370   40.7650   20.6280 C.3       1 SUB1        0.141
     14 C3         19.6410   40.7110   20.0060 C.3       1 SUB1        0.121
     15 C4         19.0560   42.1370   19.8550 C.3       1 SUB1        0.112
     16 C5         20.0520   42.9340   18.9460 C.3       1 SUB1        0.113
     17 C6         19.6210   44.3900   18.6390 C.3       1 SUB1        0.073
     18 C7         23.6620   40.7160   18.3280 C.3       1 SUB1        0.040
     19 O1         22.2840   41.0760   18.5930 O.3       1 SUB1       -0.352
     20 O2         20.9260   41.3510   21.9120 O.3       1 SUB1       -0.338
     21 O3         18.8070   39.9600   20.8850 O.3       1 SUB1       -0.340
     22 O4         17.7210   42.1610   19.3700 O.3       1 SUB1       -0.387
     23 O5         21.3270   42.9580   19.6300 O.3       1 SUB1       -0.340
     24 O6         18.9540   45.0340   19.7230 O.3       1 SUB1       -0.392
     25 C1         17.9140   39.0740   20.2720 C.3       1 SUB1        0.186
     26 C2         16.8540   38.7670   21.3500 C.3       1 SUB1        0.108
     27 C3         17.4230   37.8610   22.4500 C.3       1 SUB1        0.007
     28 C4         18.1380   36.6480   21.8660 C.3       1 SUB1        0.084
     29 C5         19.2340   37.1010   20.8540 C.3       1 SUB1        0.085
     30 C6         19.9060   35.9110   20.1660 C.3       1 SUB1       -0.036
     31 O2         16.4790   40.0190   21.9370 O.3       1 SUB1       -0.387
     32 O4         17.2290   35.7600   21.2390 O.3       1 SUB1       -0.389
     33 O5         18.6320   37.9200   19.8240 O.3       1 SUB1       -0.343
     34 H11        20.3419   39.5469   22.7673 H         1 SUB1        0.094
     35 H21        19.2994   40.4289   24.7275 H         1 SUB1        0.067
     36 H31        20.1174   43.3137   24.1043 H         1 SUB1        0.065
     37 H41        21.9583   43.0843   25.7632 H         1 SUB1        0.065
     38 H51        22.2360   42.5021   23.3112 H         1 SUB1        0.065
     39 H61        24.3217   40.7428   23.8351 H         1 SUB1        0.058
     40 H62        24.2589   41.8115   25.2776 H         1 SUB1        0.058
     41 H71        17.9413   40.8855   22.9410 H         1 SUB1        0.210
     42 H81        19.2226   41.8669   26.4221 H         1 SUB1        0.210
     43 H91        20.8182   41.4431   26.9306 H         1 SUB1        0.210
     44 H111       25.5238   42.7142   23.5455 H         1 SUB1        0.209
     45 H121       22.8876   41.8426   20.4177 H         1 SUB1        0.094
     46 H131       21.4614   39.7519   20.6877 H         1 SUB1        0.068
     47 H141       19.6892   40.2254   19.0202 H         1 SUB1        0.065
     48 H151       19.0431   42.6085   20.8487 H         1 SUB1        0.065
     49 H161       20.1555   42.3992   17.9904 H         1 SUB1        0.065
     50 H171       18.9421   44.3755   17.7736 H         1 SUB1        0.058
     51 H172       20.5202   44.9726   18.3899 H         1 SUB1        0.058
     52 H181       23.7364   40.2605   17.3295 H         1 SUB1        0.052
     53 H182       24.0052   39.9963   19.0858 H         1 SUB1        0.052
     54 H183       24.2907   41.6178   18.3673 H         1 SUB1        0.052
     55 H221       17.4262   43.0615   19.3018 H         1 SUB1        0.210
     56 H241       18.1685   44.5475   19.9439 H         1 SUB1        0.209
     57 H251       17.4317   39.5498   19.4054 H         1 SUB1        0.094
     58 H261       15.9809   38.2823   20.8888 H         1 SUB1        0.064
     59 H271       16.5976   37.5148   23.0894 H         1 SUB1        0.032
     60 H272       18.1374   38.4393   23.0544 H         1 SUB1        0.032
     61 H281       18.6284   36.1101   22.6907 H         1 SUB1        0.062
     62 H291       19.9954   37.6839   21.3931 H         1 SUB1        0.062
     63 H301       20.6693   36.2768   19.4635 H         1 SUB1        0.025
     64 H302       19.1503   35.3304   19.6166 H         1 SUB1        0.025
     65 H303       20.3816   35.2703   20.9232 H         1 SUB1        0.025
     66 H311       17.2441   40.4276   22.3245 H         1 SUB1        0.210
     67 H321       17.7055   35.0174   20.8869 H         1 SUB1        0.210
@<TRIPOS>BOND
     1    1   10 1  
     2    1    2 1  
     3    2    7 1  
     4    2    3 1  
     5    3    8 1  
     6    3    4 1  
     7    4    9 1  
     8    5    4 1  
     9   10    5 1  
    10    5    6 1  
    11    6   11 1  
    12   12   23 1  
    13   12   19 1  
    14   13   12 1  
    15   13   20 1  
    16   14   13 1  
    17   21   14 1  
    18   14   15 1  
    19   15   22 1  
    20   15   16 1  
    21   16   23 1  
    22   16   17 1  
    23   17   24 1  
    24   19   18 1  
    25   25   33 1  
    26   25   26 1  
    27   26   31 1  
    28   26   27 1  
    29   27   28 1  
    30   28   32 1  
    31   29   28 1  
    32   33   29 1  
    33   29   30 1  
    34   20    1 1  
    35   21   25 1  
    36    1   34 1  
    37    2   35 1  
    38    3   36 1  
    39    4   37 1  
    40    5   38 1  
    41    6   39 1  
    42    6   40 1  
    43    7   41 1  
    44    8   42 1  
    45    9   43 1  
    46   11   44 1  
    47   12   45 1  
    48   13   46 1  
    49   14   47 1  
    50   15   48 1  
    51   16   49 1  
    52   17   50 1  
    53   17   51 1  
    54   18   52 1  
    55   18   53 1  
    56   18   54 1  
    57   22   55 1  
    58   24   56 1  
    59   25   57 1  
    60   26   58 1  
    61   27   59 1  
    62   27   60 1  
    63   28   61 1  
    64   29   62 1  
    65   30   63 1  
    66   30   64 1  
    67   30   65 1  
    68   31   66 1  
    69   32   67 1  
@<TRIPOS>SUBSTRUCTURE
     1 SUB1        1 GROUP

