2fai_ligand
  -I-interpret- 

 42 44  0  0  0  0  0  0  0  0999 V2000
    3.6660    0.2770   -3.0930 C   0  0  0  0  0
    3.9640   -0.4210   -4.4090 C   0  0  0  0  0
    5.4600   -0.4160   -4.7500 C   0  0  0  0  0
    5.5760   -1.4260   -5.8560 C   0  0  0  0  0
    6.7550   -2.4130   -5.8780 C   0  0  0  0  0
    4.5540   -1.4350   -6.8140 C   0  0  0  0  0
    3.4280   -0.5890   -6.8690 C   0  0  0  0  0
    3.2010    0.2170   -5.5720 C   0  0  0  0  0
    1.7120    0.3400   -5.2700 C   0  0  0  0  0
    1.3190   -0.6960   -4.3670 O   0  0  0  0  0
    3.7370    1.6170   -5.7650 C   0  0  0  0  0
    5.0690    1.4540   -6.2780 O   0  0  0  0  0
    5.9280    0.9750   -5.2420 C   0  0  0  0  0
    7.3800    1.0900   -5.7800 C   0  0  0  0  0
    7.7380    0.7920   -7.1010 C   0  0  0  0  0
    9.0780    0.9200   -7.5080 C   0  0  0  0  0
   10.0410    1.3690   -6.6040 C   0  0  0  0  0
   11.3500    1.5310   -6.9570 O   0  0  0  0  0
    9.6670    1.6780   -5.3040 C   0  0  0  0  0
    8.3500    1.5390   -4.9020 C   0  0  0  0  0
    3.9597    1.3243   -3.1640 H   0  0  0  0  0
    2.5987    0.2111   -2.8818 H   0  0  0  0  0
    4.2266   -0.2054   -2.2923 H   0  0  0  0  0
    3.6357   -1.4515   -4.2732 H   0  0  0  0  0
    6.0799   -0.6482   -3.8840 H   0  0  0  0  0
    6.3754   -3.4321   -5.8047 H   0  0  0  0  0
    7.3078   -2.2960   -6.8101 H   0  0  0  0  0
    7.4145   -2.2081   -5.0347 H   0  0  0  0  0
    4.6391   -2.1796   -7.6055 H   0  0  0  0  0
    2.5516   -1.2189   -7.0215 H   0  0  0  0  0
    3.5939    0.1260   -7.6748 H   0  0  0  0  0
    1.1455    0.2471   -6.1966 H   0  0  0  0  0
    1.5134    1.3109   -4.8160 H   0  0  0  0  0
    0.3811   -0.6160   -4.1787 H   0  0  0  0  0
    3.7362    2.1762   -4.8294 H   0  0  0  0  0
    3.1137    2.1911   -6.4506 H   0  0  0  0  0
    5.8899    1.5680   -4.3282 H   0  0  0  0  0
    6.9801    0.4618   -7.8115 H   0  0  0  0  0
    9.3641    0.6685   -8.5293 H   0  0  0  0  0
   11.8481    1.8455   -6.1990 H   0  0  0  0  0
   10.4151    2.0324   -4.5949 H   0  0  0  0  0
    8.0728    1.7872   -3.8775 H   0  0  0  0  0
  1  2  1  0  0  0
  2  3  1  0  0  0
  2  8  1  0  0  0
  3  4  1  0  0  0
  3 13  1  0  0  0
  4  5  1  0  0  0
  4  6  2  0  0  0
  6  7  1  0  0  0
  7  8  1  0  0  0
  8  9  1  0  0  0
  8 11  1  0  0  0
  9 10  1  0  0  0
 11 12  1  0  0  0
 12 13  1  0  0  0
 13 14  1  0  0  0
 14 15  4  0  0  0
 14 20  4  0  0  0
 15 16  4  0  0  0
 16 17  4  0  0  0
 17 18  1  0  0  0
 17 19  4  0  0  0
 19 20  4  0  0  0
  1 21  1  0  0  0
  1 22  1  0  0  0
  1 23  1  0  0  0
  2 24  1  0  0  0
  3 25  1  0  0  0
  5 26  1  0  0  0
  5 27  1  0  0  0
  5 28  1  0  0  0
  6 29  1  0  0  0
  7 30  1  0  0  0
  7 31  1  0  0  0
  9 32  1  0  0  0
  9 33  1  0  0  0
 10 34  1  0  0  0
 11 35  1  0  0  0
 11 36  1  0  0  0
 13 37  1  0  0  0
 15 38  1  0  0  0
 16 39  1  0  0  0
 18 40  1  0  0  0
 19 41  1  0  0  0
 20 42  1  0  0  0
M  END
$$$$
