### 
### Created by X-TOOL on Sun Jun  3 12:17:49 2007
### 

@<TRIPOS>MOLECULE
2fai_ligand
   42    44     1     0     0
SMALL
GAST_HUCK


@<TRIPOS>ATOM
      1 CAT         3.6660    0.2770   -3.0930 C.3       1 SUB1       -0.060
      2 CAK         3.9640   -0.4210   -4.4090 C.3       1 SUB1       -0.018
      3 CAJ         5.4600   -0.4160   -4.7500 C.3       1 SUB1        0.021
      4 CAN         5.5760   -1.4260   -5.8560 C.2       1 SUB1       -0.076
      5 CAQ         6.7550   -2.4130   -5.8780 C.3       1 SUB1       -0.040
      6 CAP         4.5540   -1.4350   -6.8140 C.2       1 SUB1       -0.108
      7 CAO         3.4280   -0.5890   -6.8690 C.3       1 SUB1       -0.037
      8 CAL         3.2010    0.2170   -5.5720 C.3       1 SUB1        0.025
      9 CAR         1.7120    0.3400   -5.2700 C.3       1 SUB1        0.053
     10 OAS         1.3190   -0.6960   -4.3670 O.3       1 SUB1       -0.394
     11 CAM         3.7370    1.6170   -5.7650 C.3       1 SUB1        0.060
     12 OAH         5.0690    1.4540   -6.2780 O.3       1 SUB1       -0.363
     13 CAI         5.9280    0.9750   -5.2420 C.3       1 SUB1        0.099
     14 CAD         7.3800    1.0900   -5.7800 C.ar      1 SUB1       -0.023
     15 CAC         7.7380    0.7920   -7.1010 C.ar      1 SUB1       -0.066
     16 CAB         9.0780    0.9200   -7.5080 C.ar      1 SUB1       -0.040
     17 CAA        10.0410    1.3690   -6.6040 C.ar      1 SUB1        0.080
     18 OAG        11.3500    1.5310   -6.9570 O.3       1 SUB1       -0.338
     19 CAF         9.6670    1.6780   -5.3040 C.ar      1 SUB1       -0.040
     20 CAE         8.3500    1.5390   -4.9020 C.ar      1 SUB1       -0.066
     21 H           3.9597    1.3243   -3.1640 H         1 SUB1        0.023
     22 H           2.5987    0.2111   -2.8818 H         1 SUB1        0.023
     23 H           4.2266   -0.2054   -2.2923 H         1 SUB1        0.023
     24 H           3.6357   -1.4515   -4.2732 H         1 SUB1        0.033
     25 H           6.0799   -0.6482   -3.8840 H         1 SUB1        0.049
     26 H           6.3754   -3.4321   -5.8047 H         1 SUB1        0.038
     27 H           7.3078   -2.2960   -6.8101 H         1 SUB1        0.038
     28 H           7.4145   -2.2081   -5.0347 H         1 SUB1        0.038
     29 H           4.6391   -2.1796   -7.6055 H         1 SUB1        0.024
     30 H           2.5516   -1.2189   -7.0215 H         1 SUB1        0.035
     31 H           3.5939    0.1260   -7.6748 H         1 SUB1        0.035
     32 H           1.1455    0.2471   -6.1966 H         1 SUB1        0.056
     33 H           1.5134    1.3109   -4.8160 H         1 SUB1        0.056
     34 H           0.3811   -0.6160   -4.1787 H         1 SUB1        0.209
     35 H           3.7362    2.1762   -4.8294 H         1 SUB1        0.057
     36 H           3.1137    2.1911   -6.4506 H         1 SUB1        0.057
     37 H           5.8899    1.5680   -4.3282 H         1 SUB1        0.076
     38 H           6.9801    0.4618   -7.8115 H         1 SUB1        0.053
     39 H           9.3641    0.6685   -8.5293 H         1 SUB1        0.052
     40 H          11.8481    1.8455   -6.1990 H         1 SUB1        0.246
     41 H          10.4151    2.0324   -4.5949 H         1 SUB1        0.052
     42 H           8.0728    1.7872   -3.8775 H         1 SUB1        0.053
@<TRIPOS>BOND
     1    1    2 1  
     2    2    3 1  
     3    2    8 1  
     4    3    4 1  
     5    3   13 1  
     6    4    5 1  
     7    4    6 2  
     8    6    7 1  
     9    7    8 1  
    10    8    9 1  
    11    8   11 1  
    12    9   10 1  
    13   11   12 1  
    14   12   13 1  
    15   13   14 1  
    16   14   15 ar 
    17   14   20 ar 
    18   15   16 ar 
    19   16   17 ar 
    20   17   18 1  
    21   17   19 ar 
    22   19   20 ar 
    23    1   21 1  
    24    1   22 1  
    25    1   23 1  
    26    2   24 1  
    27    3   25 1  
    28    5   26 1  
    29    5   27 1  
    30    5   28 1  
    31    6   29 1  
    32    7   30 1  
    33    7   31 1  
    34    9   32 1  
    35    9   33 1  
    36   10   34 1  
    37   11   35 1  
    38   11   36 1  
    39   13   37 1  
    40   15   38 1  
    41   16   39 1  
    42   18   40 1  
    43   19   41 1  
    44   20   42 1  
@<TRIPOS>SUBSTRUCTURE
     1 SUB1        1 GROUP

