### 
### Created by X-TOOL on Tue Oct 25 01:26:54 2005
### 

@<TRIPOS>MOLECULE
1qf0_ligand
   62    64     1     0     0
SMALL
GAST_HUCK


@<TRIPOS>ATOM
      1 H21        33.4565   43.0718   -7.6303 H         1 SUB1        0.105
      2 SG         34.2260   43.1720   -6.9870 S.3       1 SUB1       -0.151
      3 CA1        34.6030   41.5420   -6.2280 C.3       1 SUB1        0.101
      4 CB1        35.0560   40.5030   -7.2400 C.3       1 SUB1        0.010
      5 CG1        33.9310   39.7730   -7.8610 C.ar      1 SUB1       -0.040
      6 CD1        33.4910   40.1050   -9.1270 C.ar      1 SUB1       -0.060
      7 CD2        33.2620   38.7820   -7.1420 C.ar      1 SUB1       -0.060
      8 CE1        32.3900   39.4670   -9.6770 C.ar      1 SUB1       -0.069
      9 CE2        32.1680   38.1390   -7.6770 C.ar      1 SUB1       -0.069
     10 CZ1        31.7230   38.4810   -8.9510 C.ar      1 SUB1       -0.069
     11 C1         35.7580   41.9180   -5.3220 C.2       1 SUB1        0.193
     12 O1         36.8010   42.3790   -5.7990 O.2       1 SUB1       -0.396
     13 N2         35.5420   41.8020   -4.0220 N.am      1 SUB1       -0.263
     14 CA2        36.5570   42.1750   -3.0600 C.3       1 SUB1        0.140
     15 CB2        35.9360   42.2750   -1.6710 C.3       1 SUB1        0.021
     16 CG2        36.8080   42.9630   -0.6820 C.ar      1 SUB1       -0.039
     17 CD3        37.1480   44.3040   -0.8620 C.ar      1 SUB1       -0.060
     18 CD4        37.3170   42.2770    0.4140 C.ar      1 SUB1       -0.060
     19 CE3        37.9910   44.9590    0.0440 C.ar      1 SUB1       -0.069
     20 CE4        38.1610   42.9220    1.3260 C.ar      1 SUB1       -0.069
     21 CZ2        38.4980   44.2650    1.1400 C.ar      1 SUB1       -0.069
     22 C2         37.7240   41.2050   -3.0120 C.2       1 SUB1        0.207
     23 O2         38.8880   41.6100   -2.9040 O.2       1 SUB1       -0.394
     24 N3         37.3860   39.9280   -3.1110 N.am      1 SUB1       -0.266
     25 CA3        38.3190   38.8210   -3.0360 C.3       1 SUB1        0.089
     26 CB3        37.6990   37.8180   -2.0690 C.3       1 SUB1        0.010
     27 CG3        38.5660   36.7060   -1.5080 C.ar      1 SUB1       -0.048
     28 CD5        39.9190   36.9140   -1.2320 C.ar      1 SUB1       -0.068
     29 CE5        40.6780   35.8700   -0.6830 C.ar      1 SUB1       -0.040
     30 CD6        37.9620   35.4710   -1.2490 C.ar      1 SUB1       -0.068
     31 CE6        38.7180   34.4310   -0.6980 C.ar      1 SUB1       -0.040
     32 CZ3        40.0750   34.6300   -0.4140 C.ar      1 SUB1        0.080
     33 OH         40.8060   33.6190    0.1270 O.3       1 SUB1       -0.338
     34 C3         38.4740   38.2180   -4.4360 C.2       1 SUB1        0.055
     35 O3         37.4580   38.0600   -5.1470 O.co2     1 SUB1       -0.564
     36 OXT        39.6150   37.9430   -4.8370 O.co2     1 SUB1       -0.564
     37 H31        33.7430   41.1545   -5.6621 H         1 SUB1        0.067
     38 H41        35.7060   39.7769   -6.7299 H         1 SUB1        0.046
     39 H42        35.6248   41.0106   -8.0330 H         1 SUB1        0.046
     40 H61        34.0097   40.8693   -9.6943 H         1 SUB1        0.056
     41 H71        33.6077   38.5149   -6.1499 H         1 SUB1        0.056
     42 H81        32.0480   39.7343  -10.6703 H         1 SUB1        0.060
     43 H91        31.6561   37.3706   -7.1091 H         1 SUB1        0.060
     44 H101       30.8603   37.9821   -9.3774 H         1 SUB1        0.056
     45 H131       34.6632   41.4509   -3.6988 H         1 SUB1        0.189
     46 H141       36.9469   43.1632   -3.3453 H         1 SUB1        0.082
     47 H151       35.7310   41.2575   -1.3067 H         1 SUB1        0.047
     48 H152       34.9915   42.8332   -1.7507 H         1 SUB1        0.047
     49 H171       36.7544   44.8459   -1.7143 H         1 SUB1        0.056
     50 H181       37.0587   41.2349    0.5639 H         1 SUB1        0.056
     51 H191       38.2478   46.0013   -0.1069 H         1 SUB1        0.060
     52 H201       38.5536   42.3785    2.1778 H         1 SUB1        0.060
     53 H211       39.1514   44.7649    1.8458 H         1 SUB1        0.056
     54 H241       36.4190   39.7124   -3.2471 H         1 SUB1        0.190
     55 H251       39.2980   39.1570   -2.6637 H         1 SUB1        0.080
     56 H261       36.8603   37.3387   -2.5951 H         1 SUB1        0.046
     57 H262       37.3150   38.3910   -1.2122 H         1 SUB1        0.046
     58 H281       40.3785   37.8735   -1.4401 H         1 SUB1        0.053
     59 H291       41.7295   36.0199   -0.4664 H         1 SUB1        0.052
     60 H301       36.9124   35.3206   -1.4744 H         1 SUB1        0.053
     61 H311       38.2546   33.4731   -0.4913 H         1 SUB1        0.052
     62 H331       40.2517   32.8564    0.2441 H         1 SUB1        0.246
@<TRIPOS>BOND
     1    2    3 1  
     2    3   11 1  
     3    3    4 1  
     4    4    5 1  
     5    5    7 ar 
     6    5    6 ar 
     7    6    8 ar 
     8    8   10 ar 
     9   10    9 ar 
    10    9    7 ar 
    11   11   13 am 
    12   11   12 2  
    13   13   14 1  
    14   14   22 1  
    15   14   15 1  
    16   15   16 1  
    17   16   18 ar 
    18   16   17 ar 
    19   17   19 ar 
    20   19   21 ar 
    21   21   20 ar 
    22   20   18 ar 
    23   22   24 am 
    24   22   23 2  
    25   24   25 1  
    26   25   34 1  
    27   25   26 1  
    28   26   27 1  
    29   27   30 ar 
    30   27   28 ar 
    31   28   29 ar 
    32   29   32 ar 
    33   32   33 1  
    34   32   31 ar 
    35   31   30 ar 
    36   34   36 2  
    37   34   35 2  
    38    2    1 1  
    39    3   37 1  
    40    4   38 1  
    41    4   39 1  
    42    6   40 1  
    43    7   41 1  
    44    8   42 1  
    45    9   43 1  
    46   10   44 1  
    47   13   45 1  
    48   14   46 1  
    49   15   47 1  
    50   15   48 1  
    51   17   49 1  
    52   18   50 1  
    53   19   51 1  
    54   20   52 1  
    55   21   53 1  
    56   24   54 1  
    57   25   55 1  
    58   26   56 1  
    59   26   57 1  
    60   28   58 1  
    61   29   59 1  
    62   30   60 1  
    63   31   61 1  
    64   33   62 1  
@<TRIPOS>SUBSTRUCTURE
     1 SUB1        1 GROUP

