### 
### Created by X-TOOL on Tue Oct 25 01:25:11 2005
### 

@<TRIPOS>MOLECULE
1pdz_ligand
   11    10     1     0     0
SMALL
GAST_HUCK


@<TRIPOS>ATOM
      1 P          31.8840   69.4060   13.7090 P.3       1 SUB1        0.208
      2 O1P        31.1470   70.2090   12.5440 O.3       1 SUB1       -0.306
      3 O2P        31.1700   69.8960   14.8920 O.co2     1 SUB1       -0.535
      4 O3P        31.6660   67.9750   13.3100 O.co2     1 SUB1       -0.535
      5 O4P        33.2970   69.8230   13.6570 O.co2     1 SUB1       -0.535
      6 C2         29.7460   70.1730   12.5240 C.3       1 SUB1        0.106
      7 C1         29.2060   70.4510   11.1440 C.2       1 SUB1        0.058
      8 O1         29.8860   70.0780   10.1620 O.co2     1 SUB1       -0.564
      9 O2         28.0760   70.9870   11.0390 O.co2     1 SUB1       -0.564
     10 H61        29.4030   69.1756   12.8361 H         1 SUB1        0.083
     11 H62        29.3524   70.9368   13.2107 H         1 SUB1        0.083
@<TRIPOS>BOND
     1    1    2 1  
     2    1    3 2  
     3    1    4 2  
     4    1    5 2  
     5    2    6 1  
     6    6    7 1  
     7    7    8 2  
     8    7    9 2  
     9    6   10 1  
    10    6   11 1  
@<TRIPOS>SUBSTRUCTURE
     1 SUB1        1 GROUP

