1m4h_ligand
  -I-interpret- 

132132  0  0  0  0  0  0  0  0999 V2000
   11.6692   30.2611   23.5531 H   0  0  0  0  0
   12.0480   27.6465   22.7269 H   0  0  0  0  0
   11.0764   27.4422   20.6889 H   0  0  0  0  0
   11.2935   29.1806   20.2921 H   0  0  0  0  0
    9.2425   29.7598   21.0774 H   0  0  0  0  0
    9.3201   28.5983   22.4455 H   0  0  0  0  0
   12.7178   30.9749   22.9579 H   0  0  0  0  0
   15.1652   30.7784   21.2962 H   0  0  0  0  0
   15.3513   33.2108   22.5166 H   0  0  0  0  0
   13.5702   32.9785   22.5036 H   0  0  0  0  0
   13.4811   33.0063   20.1391 H   0  0  0  0  0
   13.7912   35.1870   21.2661 H   0  0  0  0  0
   14.5814   35.1893   19.6530 H   0  0  0  0  0
   15.5741   35.0083   21.1391 H   0  0  0  0  0
   16.5478   32.9212   20.1584 H   0  0  0  0  0
   15.5010   33.0581   18.7051 H   0  0  0  0  0
   15.4664   31.5623   19.6992 H   0  0  0  0  0
   17.1941   30.7242   22.0870 H   0  0  0  0  0
   11.1220   29.4490   23.3140 N   0  3  0  0  0
   11.8500   28.6420   22.3030 C   0  0  0  0  0
   13.2100   29.2920   21.9560 C   0  0  0  0  0
   14.0480   28.6840   21.2830 O   0  0  0  0  0
   10.9630   28.4700   21.0640 C   0  0  0  0  0
    9.4770   28.7240   21.3640 C   0  0  0  0  0
    8.5060   27.7970   20.6320 C   0  0  0  0  0
    8.6040   26.5590   20.8030 O   0  5  0  0  0
    7.6280   28.3090   19.8990 O   0  0  0  0  0
   13.4340   30.5150   22.4330 N   0  0  0  0  0
   14.7100   31.2010   22.2040 C   0  0  0  0  0
   15.6730   31.0240   23.3670 C   0  0  0  0  0
   15.2850   31.1170   24.5250 O   0  0  0  0  0
   14.5150   32.7070   22.0100 C   0  0  0  0  0
   14.4540   33.2550   20.5880 C   0  0  0  0  0
   14.6110   34.7640   20.6670 C   0  0  0  0  0
   15.5710   32.6570   19.7270 C   0  0  0  0  0
   16.9380   30.7960   23.0510 N   0  0  0  0  0
   17.9670   30.6470   24.0720 C   0  0  0  0  0
   19.2370   31.3320   23.5750 C   0  0  0  0  0
   20.2660   30.6840   23.3720 O   0  0  0  0  0
   18.2310   29.1630   24.3360 C   0  0  0  0  0
   17.2250   28.5600   25.2710 C   0  0  0  0  0
   17.2000   28.9960   26.4420 O   0  0  0  0  0
   16.4630   27.6650   24.8350 O   0  5  0  0  0
   18.5040   34.2610   19.5410 C   0  0  0  0  0
   20.2700   32.5050   19.8340 C   0  0  0  0  0
   19.2120   33.3590   20.5450 C   0  0  0  0  0
   19.8770   34.2000   21.6510 C   0  0  0  0  0
   19.1690   32.6450   23.3900 N   0  0  0  0  0
   20.3140   33.3830   22.8760 C   0  0  0  0  0
   20.9920   34.2860   23.9390 C   0  0  0  0  0
   20.0970   35.3160   24.3740 O   0  0  0  0  0
   21.4410   33.4560   25.1450 C   0  0  0  0  0
   22.7240   33.9080   25.8560 C   0  0  0  0  0
   22.7020   33.4210   27.3060 C   0  0  0  0  0
   23.9340   33.3320   25.1300 C   0  0  0  0  0
   23.9630   32.1460   24.8050 O   0  0  0  0  0
   24.9340   34.1650   24.8620 N   0  0  0  0  0
   26.1550   33.6530   24.2480 C   0  0  0  0  0
   26.9260   32.8090   25.2750 C   0  0  0  0  0
   26.8330   33.0570   26.4770 O   0  0  0  0  0
   27.0510   34.8040   23.7610 C   0  0  0  0  0
   27.5890   35.5710   24.9460 C   0  0  0  0  0
   28.1950   34.2500   22.8890 C   0  0  0  0  0
   27.6690   31.8110   24.8080 N   0  0  0  0  0
   28.4500   30.9720   25.7120 C   0  0  0  0  0
   29.7510   31.6970   25.9940 C   0  0  0  0  0
   30.2440   32.4370   25.1490 O   0  0  0  0  0
   28.7620   29.6060   25.0690 C   0  0  0  0  0
   27.5390   28.8890   24.4820 C   0  0  0  0  0
   27.8170   27.4530   24.0460 C   0  0  0  0  0
   28.8130   27.2120   23.3270 O   0  5  0  0  0
   27.0230   26.5630   24.4180 O   0  0  0  0  0
   30.3080   31.5050   27.1820 N   0  0  0  0  0
   31.5780   32.1460   27.5100 C   0  0  0  0  0
   32.6270   31.0960   27.8940 C   0  0  0  0  0
   33.6730   31.0080   27.2060 O   0  5  0  0  0
   31.3970   33.1480   28.6520 C   0  0  0  0  0
   32.5980   34.0170   28.8900 C   0  0  0  0  0
   33.1390   34.7760   27.8610 C   0  0  0  0  0
   33.1800   34.0960   30.1530 C   0  0  0  0  0
   34.2490   35.6120   28.0840 C   0  0  0  0  0
   34.2920   34.9290   30.3890 C   0  0  0  0  0
   34.8230   35.6870   29.3460 C   0  0  0  0  0
   32.3850   30.3620   28.8750 O   0  0  0  0  0
   17.6327   31.1255   25.0044 H   0  0  0  0  0
   19.2326   29.0557   24.7780 H   0  0  0  0  0
   18.1926   28.6218   23.3791 H   0  0  0  0  0
   24.8504   35.1374   25.0798 H   0  0  0  0  0
   25.8850   33.0220   23.3884 H   0  0  0  0  0
   26.4457   35.4880   23.1480 H   0  0  0  0  0
   26.7512   35.9922   25.5211 H   0  0  0  0  0
   28.2370   36.3862   24.5916 H   0  0  0  0  0
   28.1705   34.8932   25.5882 H   0  0  0  0  0
   28.8055   33.5546   23.4837 H   0  0  0  0  0
   28.8237   35.0813   22.5375 H   0  0  0  0  0
   27.7722   33.7187   22.0236 H   0  0  0  0  0
   27.6934   31.6324   23.8244 H   0  0  0  0  0
   27.8932   30.8163   26.6478 H   0  0  0  0  0
   29.2054   28.9566   25.8382 H   0  0  0  0  0
   29.4895   29.7647   24.2594 H   0  0  0  0  0
   27.1918   29.4563   23.6059 H   0  0  0  0  0
   26.7472   28.8725   25.2454 H   0  0  0  0  0
   29.8567   30.9193   27.8553 H   0  0  0  0  0
   31.9339   32.6883   26.6216 H   0  0  0  0  0
   31.1855   32.5880   29.5748 H   0  0  0  0  0
   30.5414   33.7965   28.4124 H   0  0  0  0  0
   32.7000   34.7239   26.8712 H   0  0  0  0  0
   32.7714   33.5078   30.9667 H   0  0  0  0  0
   34.6567   36.1986   27.2687 H   0  0  0  0  0
   34.7330   34.9803   31.3779 H   0  0  0  0  0
   35.6780   36.3304   29.5193 H   0  0  0  0  0
   10.9676   28.8927   24.1403 H   0  0  0  0  0
   10.2348   29.7414   22.9352 H   0  0  0  0  0
   18.0359   33.6438   18.7600 H   0  0  0  0  0
   19.2349   34.9422   19.0809 H   0  0  0  0  0
   17.7301   34.8479   20.0574 H   0  0  0  0  0
   20.7736   31.8589   20.5682 H   0  0  0  0  0
   21.0106   33.1624   19.3552 H   0  0  0  0  0
   19.7843   31.8814   19.0690 H   0  0  0  0  0
   18.4684   32.6923   21.0061 H   0  0  0  0  0
   19.1598   34.9651   21.9829 H   0  0  0  0  0
   20.7657   34.6900   21.2265 H   0  0  0  0  0
   18.3227   33.1320   23.6059 H   0  0  0  0  0
   21.0635   32.6483   22.5467 H   0  0  0  0  0
   21.8767   34.7559   23.4846 H   0  0  0  0  0
   20.5304   35.8571   25.0236 H   0  0  0  0  0
   20.6264   33.4749   25.8840 H   0  0  0  0  0
   21.5981   32.4238   24.7988 H   0  0  0  0  0
   22.7814   35.0064   25.8429 H   0  0  0  0  0
   23.6215   33.7449   27.8155 H   0  0  0  0  0
   22.6408   32.3228   27.3231 H   0  0  0  0  0
   21.8280   33.8451   27.8220 H   0  0  0  0  0
 19  1  1  0  0  0
 20  2  1  0  0  0
 23  3  1  0  0  0
 23  4  1  0  0  0
 24  5  1  0  0  0
 24  6  1  0  0  0
 28  7  1  0  0  0
 29  8  1  0  0  0
 32  9  1  0  0  0
 32 10  1  0  0  0
 33 11  1  0  0  0
 34 12  1  0  0  0
 34 13  1  0  0  0
 34 14  1  0  0  0
 35 15  1  0  0  0
 35 16  1  0  0  0
 21 20  1  0  0  0
 20 23  1  0  0  0
 20 19  1  0  0  0
 23 24  1  0  0  0
 24 25  1  0  0  0
 25 26  1  0  0  0
 25 27  2  0  0  0
 21 22  2  0  0  0
 30 29  1  0  0  0
 29 32  1  0  0  0
 29 28  1  0  0  0
 32 33  1  0  0  0
 33 35  1  0  0  0
 33 34  1  0  0  0
 30 31  2  0  0  0
 38 37  1  0  0  0
 37 40  1  0  0  0
 37 36  1  0  0  0
 40 41  1  0  0  0
 41 42  2  0  0  0
 41 43  1  0  0  0
 38 39  2  0  0  0
 46 44  1  0  0  0
 46 45  1  0  0  0
 47 46  1  0  0  0
 49 47  1  0  0  0
 48 49  1  0  0  0
 49 50  1  0  0  0
 50 51  1  0  0  0
 52 53  1  0  0  0
 53 55  1  0  0  0
 53 54  1  0  0  0
 55 56  2  0  0  0
 58 59  1  0  0  0
 58 61  1  0  0  0
 57 58  1  0  0  0
 61 62  1  0  0  0
 61 63  1  0  0  0
 59 60  2  0  0  0
 65 66  1  0  0  0
 65 68  1  0  0  0
 64 65  1  0  0  0
 68 69  1  0  0  0
 69 70  1  0  0  0
 70 71  1  0  0  0
 70 72  2  0  0  0
 66 67  2  0  0  0
 74 75  1  0  0  0
 74 77  1  0  0  0
 73 74  1  0  0  0
 77 78  1  0  0  0
 78 80  4  0  0  0
 78 79  4  0  0  0
 79 81  4  0  0  0
 81 83  4  0  0  0
 82 83  4  0  0  0
 80 82  4  0  0  0
 75 84  2  0  0  0
 75 76  1  0  0  0
 35 17  1  0  0  0
 36 18  1  0  0  0
 37 85  1  0  0  0
 40 86  1  0  0  0
 40 87  1  0  0  0
 57 88  1  0  0  0
 58 89  1  0  0  0
 61 90  1  0  0  0
 62 91  1  0  0  0
 62 92  1  0  0  0
 62 93  1  0  0  0
 63 94  1  0  0  0
 63 95  1  0  0  0
 63 96  1  0  0  0
 64 97  1  0  0  0
 65 98  1  0  0  0
 68 99  1  0  0  0
 68100  1  0  0  0
 69101  1  0  0  0
 69102  1  0  0  0
 73103  1  0  0  0
 74104  1  0  0  0
 77105  1  0  0  0
 77106  1  0  0  0
 79107  1  0  0  0
 80108  1  0  0  0
 81109  1  0  0  0
 82110  1  0  0  0
 83111  1  0  0  0
 19112  1  0  0  0
 19113  1  0  0  0
 44114  1  0  0  0
 44115  1  0  0  0
 44116  1  0  0  0
 45117  1  0  0  0
 45118  1  0  0  0
 45119  1  0  0  0
 46120  1  0  0  0
 47121  1  0  0  0
 47122  1  0  0  0
 48123  1  0  0  0
 49124  1  0  0  0
 50125  1  0  0  0
 51126  1  0  0  0
 52127  1  0  0  0
 52128  1  0  0  0
 53129  1  0  0  0
 54130  1  0  0  0
 54131  1  0  0  0
 54132  1  0  0  0
 28 21  1  0  0  0
 36 30  1  0  0  0
 59 64  1  0  0  0
 66 73  1  0  0  0
 50 52  1  0  0  0
 55 57  1  0  0  0
 48 38  1  0  0  0
M  END
$$$$
