### 
### Created by X-TOOL on Tue Oct 25 00:57:49 2005
### 

@<TRIPOS>MOLECULE
1m4h_ligand
  132   132     1     0     0
SMALL
GAST_HUCK


@<TRIPOS>ATOM
      1 H191       11.6692   30.2611   23.5531 H         1 SUB1        0.201
      2 H201       12.0480   27.6465   22.7269 H         1 SUB1        0.110
      3 H231       11.0764   27.4422   20.6889 H         1 SUB1        0.038
      4 H232       11.2935   29.1806   20.2921 H         1 SUB1        0.038
      5 H241        9.2425   29.7598   21.0774 H         1 SUB1        0.049
      6 H242        9.3201   28.5983   22.4455 H         1 SUB1        0.049
      7 H281       12.7178   30.9749   22.9579 H         1 SUB1        0.188
      8 H291       15.1652   30.7784   21.2962 H         1 SUB1        0.080
      9 H321       15.3513   33.2108   22.5166 H         1 SUB1        0.032
     10 H322       13.5702   32.9785   22.5036 H         1 SUB1        0.032
     11 H331       13.4811   33.0063   20.1391 H         1 SUB1        0.030
     12 H341       13.7912   35.1870   21.2661 H         1 SUB1        0.023
     13 H342       14.5814   35.1893   19.6530 H         1 SUB1        0.023
     14 H343       15.5741   35.0083   21.1391 H         1 SUB1        0.023
     15 H351       16.5478   32.9212   20.1584 H         1 SUB1        0.023
     16 H352       15.5010   33.0581   18.7051 H         1 SUB1        0.023
     17 H353       15.4664   31.5623   19.6992 H         1 SUB1        0.023
     18 H361       17.1941   30.7242   22.0870 H         1 SUB1        0.189
     19 N          11.1220   29.4490   23.3140 N.4       1 SUB1        0.238
     20 CA         11.8500   28.6420   22.3030 C.3       1 SUB1        0.068
     21 C          13.2100   29.2920   21.9560 C.2       1 SUB1        0.227
     22 O          14.0480   28.6840   21.2830 O.2       1 SUB1       -0.391
     23 CB         10.9630   28.4700   21.0640 C.3       1 SUB1        0.019
     24 CG          9.4770   28.7240   21.3640 C.3       1 SUB1       -0.007
     25 CD          8.5060   27.7970   20.6320 C.2       1 SUB1        0.028
     26 OE1         8.6040   26.5590   20.8030 O.co2     1 SUB1       -0.567
     27 OE2         7.6280   28.3090   19.8990 O.co2     1 SUB1       -0.567
     28 N          13.4340   30.5150   22.4330 N.am      1 SUB1       -0.261
     29 CA         14.7100   31.2010   22.2040 C.3       1 SUB1        0.131
     30 C          15.6730   31.0240   23.3670 C.2       1 SUB1        0.204
     31 O          15.2850   31.1170   24.5250 O.2       1 SUB1       -0.394
     32 CB         14.5150   32.7070   22.0100 C.3       1 SUB1       -0.010
     33 CG         14.4540   33.2550   20.5880 C.3       1 SUB1       -0.043
     34 CD1        14.6110   34.7640   20.6670 C.3       1 SUB1       -0.062
     35 CD2        15.5710   32.6570   19.7270 C.3       1 SUB1       -0.062
     36 N          16.9380   30.7960   23.0510 N.am      1 SUB1       -0.261
     37 CA         17.9670   30.6470   24.0720 C.3       1 SUB1        0.142
     38 C          19.2370   31.3320   23.5750 C.2       1 SUB1        0.205
     39 O          20.2660   30.6840   23.3720 O.2       1 SUB1       -0.394
     40 CB         18.2310   29.1630   24.3360 C.3       1 SUB1        0.027
     41 CG         17.2250   28.5600   25.2710 C.2       1 SUB1        0.032
     42 OD1        17.2000   28.9960   26.4420 O.co2     1 SUB1       -0.566
     43 OD2        16.4630   27.6650   24.8350 O.co2     1 SUB1       -0.566
     44 CD1        18.5040   34.2610   19.5410 C.3       1 SUB1       -0.063
     45 CD2        20.2700   32.5050   19.8340 C.3       1 SUB1       -0.063
     46 CG         19.2120   33.3590   20.5450 C.3       1 SUB1       -0.045
     47 CB         19.8770   34.2000   21.6510 C.3       1 SUB1       -0.025
     48 N          19.1690   32.6450   23.3900 N.am      1 SUB1       -0.279
     49 CA         20.3140   33.3830   22.8760 C.3       1 SUB1        0.068
     50 C          20.9920   34.2860   23.9390 C.3       1 SUB1        0.080
     51 O          20.0970   35.3160   24.3740 O.3       1 SUB1       -0.389
     52 CM         21.4410   33.4560   25.1450 C.3       1 SUB1       -0.005
     53 CA         22.7240   33.9080   25.8560 C.3       1 SUB1        0.048
     54 CB         22.7020   33.4210   27.3060 C.3       1 SUB1       -0.045
     55 C          23.9340   33.3320   25.1300 C.2       1 SUB1        0.181
     56 O          23.9630   32.1460   24.8050 O.2       1 SUB1       -0.397
     57 N          24.9340   34.1650   24.8620 N.am      1 SUB1       -0.265
     58 CA         26.1550   33.6530   24.2480 C.3       1 SUB1        0.133
     59 C          26.9260   32.8090   25.2750 C.2       1 SUB1        0.204
     60 O          26.8330   33.0570   26.4770 O.2       1 SUB1       -0.394
     61 CB         27.0510   34.8040   23.7610 C.3       1 SUB1       -0.006
     62 CG1        27.5890   35.5710   24.9460 C.3       1 SUB1       -0.058
     63 CG2        28.1950   34.2500   22.8890 C.3       1 SUB1       -0.058
     64 N          27.6690   31.8110   24.8080 N.am      1 SUB1       -0.263
     65 CA         28.4500   30.9720   25.7120 C.3       1 SUB1        0.134
     66 C          29.7510   31.6970   25.9940 C.2       1 SUB1        0.205
     67 O          30.2440   32.4370   25.1490 O.2       1 SUB1       -0.394
     68 CB         28.7620   29.6060   25.0690 C.3       1 SUB1       -0.001
     69 CG         27.5390   28.8890   24.4820 C.3       1 SUB1       -0.010
     70 CD         27.8170   27.4530   24.0460 C.2       1 SUB1        0.028
     71 OE1        28.8130   27.2120   23.3270 O.co2     1 SUB1       -0.567
     72 OE2        27.0230   26.5630   24.4180 O.co2     1 SUB1       -0.567
     73 N          30.3080   31.5050   27.1820 N.am      1 SUB1       -0.266
     74 CA         31.5780   32.1460   27.5100 C.3       1 SUB1        0.091
     75 C          32.6270   31.0960   27.8940 C.2       1 SUB1        0.055
     76 O          33.6730   31.0080   27.2060 O.co2     1 SUB1       -0.564
     77 CB         31.3970   33.1480   28.6520 C.3       1 SUB1        0.015
     78 CG         32.5980   34.0170   28.8900 C.ar      1 SUB1       -0.038
     79 CD1        33.1390   34.7760   27.8610 C.ar      1 SUB1       -0.060
     80 CD2        33.1800   34.0960   30.1530 C.ar      1 SUB1       -0.060
     81 CE1        34.2490   35.6120   28.0840 C.ar      1 SUB1       -0.069
     82 CE2        34.2920   34.9290   30.3890 C.ar      1 SUB1       -0.069
     83 CZ         34.8230   35.6870   29.3460 C.ar      1 SUB1       -0.069
     84 OXT        32.3850   30.3620   28.8750 O.co2     1 SUB1       -0.564
     85 H371       17.6327   31.1255   25.0044 H         1 SUB1        0.084
     86 H401       19.2326   29.0557   24.7780 H         1 SUB1        0.053
     87 H402       18.1926   28.6218   23.3791 H         1 SUB1        0.053
     88 H571       24.8504   35.1374   25.0798 H         1 SUB1        0.188
     89 H581       25.8850   33.0220   23.3884 H         1 SUB1        0.080
     90 H611       26.4457   35.4880   23.1480 H         1 SUB1        0.034
     91 H621       26.7512   35.9922   25.5211 H         1 SUB1        0.023
     92 H622       28.2370   36.3862   24.5916 H         1 SUB1        0.023
     93 H623       28.1705   34.8932   25.5882 H         1 SUB1        0.023
     94 H631       28.8055   33.5546   23.4837 H         1 SUB1        0.023
     95 H632       28.8237   35.0813   22.5375 H         1 SUB1        0.023
     96 H633       27.7722   33.7187   22.0236 H         1 SUB1        0.023
     97 H641       27.6934   31.6324   23.8244 H         1 SUB1        0.188
     98 H651       27.8932   30.8163   26.6478 H         1 SUB1        0.080
     99 H681       29.2054   28.9566   25.8382 H         1 SUB1        0.035
    100 H682       29.4895   29.7647   24.2594 H         1 SUB1        0.035
    101 H691       27.1918   29.4563   23.6059 H         1 SUB1        0.049
    102 H692       26.7472   28.8725   25.2454 H         1 SUB1        0.049
    103 H731       29.8567   30.9193   27.8553 H         1 SUB1        0.190
    104 H741       31.9339   32.6883   26.6216 H         1 SUB1        0.080
    105 H771       31.1855   32.5880   29.5748 H         1 SUB1        0.049
    106 H772       30.5414   33.7965   28.4124 H         1 SUB1        0.049
    107 H791       32.7000   34.7239   26.8712 H         1 SUB1        0.056
    108 H801       32.7714   33.5078   30.9667 H         1 SUB1        0.056
    109 H811       34.6567   36.1986   27.2687 H         1 SUB1        0.060
    110 H821       34.7330   34.9803   31.3779 H         1 SUB1        0.060
    111 H831       35.6780   36.3304   29.5193 H         1 SUB1        0.056
    112 H192       10.9676   28.8927   24.1403 H         1 SUB1        0.201
    113 H193       10.2348   29.7414   22.9352 H         1 SUB1        0.201
    114 H441       18.0359   33.6438   18.7600 H         1 SUB1        0.023
    115 H442       19.2349   34.9422   19.0809 H         1 SUB1        0.023
    116 H443       17.7301   34.8479   20.0574 H         1 SUB1        0.023
    117 H451       20.7736   31.8589   20.5682 H         1 SUB1        0.023
    118 H452       21.0106   33.1624   19.3552 H         1 SUB1        0.023
    119 H453       19.7843   31.8814   19.0690 H         1 SUB1        0.023
    120 H461       18.4684   32.6923   21.0061 H         1 SUB1        0.030
    121 H471       19.1598   34.9651   21.9829 H         1 SUB1        0.029
    122 H472       20.7657   34.6900   21.2265 H         1 SUB1        0.029
    123 H481       18.3227   33.1320   23.6059 H         1 SUB1        0.186
    124 H491       21.0635   32.6483   22.5467 H         1 SUB1        0.058
    125 H501       21.8767   34.7559   23.4846 H         1 SUB1        0.062
    126 H511       20.5304   35.8571   25.0236 H         1 SUB1        0.210
    127 H521       20.6264   33.4749   25.8840 H         1 SUB1        0.032
    128 H522       21.5981   32.4238   24.7988 H         1 SUB1        0.032
    129 H531       22.7814   35.0064   25.8429 H         1 SUB1        0.054
    130 H541       23.6215   33.7449   27.8155 H         1 SUB1        0.026
    131 H542       22.6408   32.3228   27.3231 H         1 SUB1        0.026
    132 H543       21.8280   33.8451   27.8220 H         1 SUB1        0.026
@<TRIPOS>BOND
     1   19    1 1  
     2   20    2 1  
     3   23    3 1  
     4   23    4 1  
     5   24    5 1  
     6   24    6 1  
     7   28    7 1  
     8   29    8 1  
     9   32    9 1  
    10   32   10 1  
    11   33   11 1  
    12   34   12 1  
    13   34   13 1  
    14   34   14 1  
    15   35   15 1  
    16   35   16 1  
    17   21   20 1  
    18   20   23 1  
    19   20   19 1  
    20   23   24 1  
    21   24   25 1  
    22   25   26 2  
    23   25   27 2  
    24   21   22 2  
    25   30   29 1  
    26   29   32 1  
    27   29   28 1  
    28   32   33 1  
    29   33   35 1  
    30   33   34 1  
    31   30   31 2  
    32   38   37 1  
    33   37   40 1  
    34   37   36 1  
    35   40   41 1  
    36   41   42 2  
    37   41   43 2  
    38   38   39 2  
    39   46   44 1  
    40   46   45 1  
    41   47   46 1  
    42   49   47 1  
    43   48   49 1  
    44   49   50 1  
    45   50   51 1  
    46   52   53 1  
    47   53   55 1  
    48   53   54 1  
    49   55   56 2  
    50   58   59 1  
    51   58   61 1  
    52   57   58 1  
    53   61   62 1  
    54   61   63 1  
    55   59   60 2  
    56   65   66 1  
    57   65   68 1  
    58   64   65 1  
    59   68   69 1  
    60   69   70 1  
    61   70   71 2  
    62   70   72 2  
    63   66   67 2  
    64   74   75 1  
    65   74   77 1  
    66   73   74 1  
    67   77   78 1  
    68   78   80 ar 
    69   78   79 ar 
    70   79   81 ar 
    71   81   83 ar 
    72   82   83 ar 
    73   80   82 ar 
    74   75   84 2  
    75   75   76 2  
    76   35   17 1  
    77   36   18 1  
    78   37   85 1  
    79   40   86 1  
    80   40   87 1  
    81   57   88 1  
    82   58   89 1  
    83   61   90 1  
    84   62   91 1  
    85   62   92 1  
    86   62   93 1  
    87   63   94 1  
    88   63   95 1  
    89   63   96 1  
    90   64   97 1  
    91   65   98 1  
    92   68   99 1  
    93   68  100 1  
    94   69  101 1  
    95   69  102 1  
    96   73  103 1  
    97   74  104 1  
    98   77  105 1  
    99   77  106 1  
   100   79  107 1  
   101   80  108 1  
   102   81  109 1  
   103   82  110 1  
   104   83  111 1  
   105   19  112 1  
   106   19  113 1  
   107   44  114 1  
   108   44  115 1  
   109   44  116 1  
   110   45  117 1  
   111   45  118 1  
   112   45  119 1  
   113   46  120 1  
   114   47  121 1  
   115   47  122 1  
   116   48  123 1  
   117   49  124 1  
   118   50  125 1  
   119   51  126 1  
   120   52  127 1  
   121   52  128 1  
   122   53  129 1  
   123   54  130 1  
   124   54  131 1  
   125   54  132 1  
   126   28   21 am 
   127   36   30 am 
   128   59   64 am 
   129   66   73 am 
   130   50   52 1  
   131   55   57 am 
   132   48   38 am 
@<TRIPOS>SUBSTRUCTURE
     1 SUB1        1 GROUP

