### 
### Created by X-TOOL on Tue Oct 25 01:25:48 2005
### 

@<TRIPOS>MOLECULE
1yds_ligand
   34    35     1     0     0
SMALL
GAST_HUCK


@<TRIPOS>ATOM
      1 C1          6.9860   10.1780    2.9890 C.ar      1 SUB1        0.123
      2 C2          7.1340   10.1760    1.5900 C.ar      1 SUB1       -0.029
      3 C3          6.0160   10.0210    0.7520 C.ar      1 SUB1       -0.053
      4 C4          4.7310    9.8660    1.2740 C.ar      1 SUB1       -0.045
      5 C5          4.5640    9.8650    2.6710 C.ar      1 SUB1        0.011
      6 C6          3.2910    9.7100    3.2190 C.ar      1 SUB1        0.020
      7 N7          3.1280    9.7070    4.5750 N.ar      1 SUB1       -0.297
      8 C8          4.1840    9.8510    5.3990 C.ar      1 SUB1        0.008
      9 C9          5.4830   10.0090    4.9180 C.ar      1 SUB1       -0.029
     10 C10         5.6870   10.0190    3.5340 C.ar      1 SUB1        0.024
     11 S           8.4470   10.3740    3.9930 S.o2      1 SUB1        0.071
     12 O1          8.1500   11.4220    4.9350 O.2       1 SUB1       -0.150
     13 O2          9.5850   10.4810    3.1000 O.2       1 SUB1       -0.150
     14 N1'         8.4810    9.0070    4.8510 N.am      1 SUB1       -0.242
     15 C2'         9.0040    7.7420    4.3380 C.3       1 SUB1        0.067
     16 C3'         9.9790    7.9390    3.1780 C.3       1 SUB1       -0.017
     17 N4'        11.1750    7.0990    3.3810 N.4       1 SUB1        0.226
     18 C5'        12.3100    7.9960    3.6460 C.3       1 SUB1       -0.045
     19 H21         8.1193   10.2951    1.1541 H         1 SUB1        0.068
     20 H31         6.1550   10.0219   -0.3231 H         1 SUB1        0.064
     21 H41         3.8778    9.7486    0.6157 H         1 SUB1        0.066
     22 H61         2.4315    9.5920    2.5691 H         1 SUB1        0.087
     23 H81         4.0184    9.8438    6.4703 H         1 SUB1        0.078
     24 H91         6.3168   10.1216    5.6015 H         1 SUB1        0.072
     25 H141        8.1246    9.0266    5.7851 H         1 SUB1        0.168
     26 H151        8.1610    7.1272    3.9896 H         1 SUB1        0.053
     27 H152        9.5265    7.2199    5.1531 H         1 SUB1        0.053
     28 H161       10.2794    8.9960    3.1292 H         1 SUB1        0.083
     29 H162        9.4881    7.6534    2.2360 H         1 SUB1        0.083
     30 H171       11.3552    6.5522    2.5536 H         1 SUB1        0.201
     31 H172       11.0331    6.4833    4.1664 H         1 SUB1        0.201
     32 H181       13.2205    7.3989    3.8023 H         1 SUB1        0.078
     33 H182       12.1035    8.5924    4.5469 H         1 SUB1        0.078
     34 H183       12.4550    8.6676    2.7870 H         1 SUB1        0.078
@<TRIPOS>BOND
     1    1   11 1  
     2    1   10 ar 
     3    1    2 ar 
     4    2    3 ar 
     5    3    4 ar 
     6    4    5 ar 
     7    5   10 ar 
     8    5    6 ar 
     9    6    7 ar 
    10    7    8 ar 
    11    8    9 ar 
    12    9   10 ar 
    13   11   14 1  
    14   11   13 2  
    15   11   12 2  
    16   14   15 1  
    17   15   16 1  
    18   16   17 1  
    19   17   18 1  
    20    2   19 1  
    21    3   20 1  
    22    4   21 1  
    23    6   22 1  
    24    8   23 1  
    25    9   24 1  
    26   14   25 1  
    27   15   26 1  
    28   15   27 1  
    29   16   28 1  
    30   16   29 1  
    31   17   30 1  
    32   17   31 1  
    33   18   32 1  
    34   18   33 1  
    35   18   34 1  
@<TRIPOS>SUBSTRUCTURE
     1 SUB1        1 GROUP

