### 
### Created by X-TOOL on Mon Oct 24 23:08:03 2005
### 

@<TRIPOS>MOLECULE
1g36_ligand
   58    62     1     0     0
SMALL
GAST_HUCK


@<TRIPOS>ATOM
      1 N1         -4.9860   10.0710   19.7450 N.pl3     1 SUB1       -0.201
      2 N2         -3.0700   10.7130   18.9520 N.pl3     1 SUB1       -0.201
      3 C1         -3.7400    9.7130   19.4910 C.cat     1 SUB1        0.309
      4 C2         -3.2070    8.4440   19.7760 C.ar      1 SUB1        0.173
      5 C3         -3.9640    7.4750   20.5100 C.ar      1 SUB1       -0.019
      6 C4         -3.4470    6.2010   20.7980 C.ar      1 SUB1       -0.043
      7 C5         -2.1490    5.8380   20.3660 C.ar      1 SUB1        0.029
      8 C6         -1.3710    6.7640   19.6430 C.ar      1 SUB1       -0.043
      9 C7         -1.8850    8.0480   19.3490 C.ar      1 SUB1       -0.019
     10 N          -1.5970    4.5330   20.6480 N.3       1 SUB1       -0.247
     11 C          -2.1230    3.5250   21.6060 C.3       1 SUB1        0.097
     12 N3         -3.4270    4.3970   23.5810 N.2       1 SUB1       -0.319
     13 C8         -2.1870    3.9840   23.0760 C.2       1 SUB1        0.140
     14 N9         -1.0320    3.9980   23.8960 N.pl3     1 SUB1       -0.237
     15 C3A        -1.6310    4.4960   25.0630 C.ar      1 SUB1        0.075
     16 C7A        -3.0500    4.7310   24.8590 C.ar      1 SUB1        0.014
     17 C10        -1.0430    4.7800   26.3400 C.ar      1 SUB1       -0.047
     18 C11        -1.8560    5.2960   27.3730 C.ar      1 SUB1       -0.071
     19 C12        -3.2480    5.5260   27.1690 C.ar      1 SUB1       -0.031
     20 C13        -3.8570    5.2470   25.9170 C.ar      1 SUB1       -0.063
     21 C14         0.3830    3.6160   23.5990 C.3       1 SUB1        0.045
     22 C9         -4.0940    6.0890   28.3030 C.3       1 SUB1        0.085
     23 N4         -3.5880    5.7900   29.6780 N.pl3     1 SUB1       -0.223
     24 C15        -3.7200    4.6490   30.5010 C.2       1 SUB1        0.122
     25 N16        -3.1510    4.5890   31.7810 N.2       1 SUB1       -0.318
     26 C17        -2.5770    5.8610   31.7920 C.ar      1 SUB1        0.021
     27 C18        -2.8350    6.5760   30.5580 C.ar      1 SUB1        0.083
     28 C19        -1.8290    6.4820   32.8450 C.ar      1 SUB1       -0.066
     29 C20        -1.3370    7.7950   32.6450 C.ar      1 SUB1       -0.079
     30 C21        -1.5780    8.4960   31.4380 C.ar      1 SUB1       -0.077
     31 C22        -2.3250    7.9050   30.3870 C.ar      1 SUB1       -0.042
     32 C23        -4.4810    3.4100   30.0230 C.3       1 SUB1        0.019
     33 H11        -5.3075   11.0204   19.5082 H         1 SUB1        0.192
     34 H12        -5.6360    9.4007   20.1799 H         1 SUB1        0.192
     35 H21        -2.0800   10.5906   18.6955 H         1 SUB1        0.192
     36 H22        -3.5368   11.6163   18.7876 H         1 SUB1        0.192
     37 H51        -4.9604    7.7309   20.8517 H         1 SUB1        0.063
     38 H61        -4.0467    5.4905   21.3553 H         1 SUB1        0.052
     39 H81        -0.3757    6.4913   19.3113 H         1 SUB1        0.052
     40 H91        -1.2746    8.7495   18.7919 H         1 SUB1        0.063
     41 H101       -1.5834    4.0178   19.6990 H         1 SUB1        0.159
     42 H111       -3.1450    3.2565   21.3004 H         1 SUB1        0.075
     43 H112       -1.4743    2.6375   21.5664 H         1 SUB1        0.075
     44 H171        0.0125    4.6008   26.5101 H         1 SUB1        0.053
     45 H181       -1.4142    5.5209   28.3370 H         1 SUB1        0.048
     46 H201       -4.9161    5.4228   25.7674 H         1 SUB1        0.046
     47 H211        0.4487    3.2665   22.5581 H         1 SUB1        0.056
     48 H212        1.0415    4.4878   23.7263 H         1 SUB1        0.056
     49 H213        0.7012    2.8045   24.2699 H         1 SUB1        0.056
     50 H221       -4.1348    7.1830   28.1966 H         1 SUB1        0.075
     51 H222       -5.1066    5.6666   28.2245 H         1 SUB1        0.075
     52 H281       -1.6436    5.9576   33.7754 H         1 SUB1        0.054
     53 H291       -0.7644    8.2731   33.4315 H         1 SUB1        0.052
     54 H301       -1.1857    9.4991   31.3157 H         1 SUB1        0.053
     55 H311       -2.5076    8.4501   29.4680 H         1 SUB1        0.054
     56 H321       -4.4593    2.6482   30.8163 H         1 SUB1        0.050
     57 H322       -5.5271    3.6725   29.8070 H         1 SUB1        0.050
     58 H323       -4.0029    3.0011   29.1207 H         1 SUB1        0.050
@<TRIPOS>BOND
     1    1    3 1  
     2    3    4 1  
     3    4    5 ar 
     4    4    9 ar 
     5    5    6 ar 
     6    6    7 ar 
     7    7    8 ar 
     8    7   10 1  
     9    8    9 ar 
    10   10   11 1  
    11   11   13 1  
    12   13   14 1  
    13   14   15 1  
    14   14   21 1  
    15   15   16 ar 
    16   15   17 ar 
    17   16   20 ar 
    18   17   18 ar 
    19   18   19 ar 
    20   19   20 ar 
    21   19   22 1  
    22   22   23 1  
    23   23   24 1  
    24   23   27 1  
    25   24   25 2  
    26   24   32 1  
    27   25   26 1  
    28   26   27 ar 
    29   26   28 ar 
    30   27   31 ar 
    31   28   29 ar 
    32   29   30 ar 
    33   30   31 ar 
    34   16   12 1  
    35   13   12 2  
    36    3    2 1  
    37    1   33 1  
    38    1   34 1  
    39    2   35 1  
    40    2   36 1  
    41    5   37 1  
    42    6   38 1  
    43    8   39 1  
    44    9   40 1  
    45   10   41 1  
    46   11   42 1  
    47   11   43 1  
    48   17   44 1  
    49   18   45 1  
    50   20   46 1  
    51   21   47 1  
    52   21   48 1  
    53   21   49 1  
    54   22   50 1  
    55   22   51 1  
    56   28   52 1  
    57   29   53 1  
    58   30   54 1  
    59   31   55 1  
    60   32   56 1  
    61   32   57 1  
    62   32   58 1  
@<TRIPOS>SUBSTRUCTURE
     1 SUB1        1 GROUP

