### 
### Created by X-TOOL on Tue Oct 25 01:27:17 2005
### 

@<TRIPOS>MOLECULE
1n4k_ligand
   33    33     1     0     0
SMALL
GAST_HUCK


@<TRIPOS>ATOM
      1 C1         23.1630   -2.1100   10.2630 C.3       1 SUB1        0.133
      2 C2         22.5710   -3.4900   10.6800 C.3       1 SUB1        0.117
      3 C3         22.9430   -3.8020   12.1310 C.3       1 SUB1        0.117
      4 C4         22.3860   -2.6940   13.0500 C.3       1 SUB1        0.137
      5 C5         22.9670   -1.3280   12.6370 C.3       1 SUB1        0.138
      6 C6         22.6040   -0.9950   11.1750 C.3       1 SUB1        0.121
      7 O1         22.8100   -1.7080    8.8800 O.3       1 SUB1       -0.314
      8 O2         21.1440   -3.4870   10.5450 O.3       1 SUB1       -0.386
      9 O3         22.3880   -5.0460   12.4990 O.3       1 SUB1       -0.386
     10 O4         22.7500   -3.0220   14.4480 O.3       1 SUB1       -0.313
     11 O5         22.4040   -0.2860   13.5190 O.3       1 SUB1       -0.313
     12 O6         23.1590    0.2590   10.7890 O.3       1 SUB1       -0.386
     13 P1         23.6820   -2.0580    7.5940 P.3       1 SUB1        0.206
     14 O11        22.9530   -1.4340    6.4570 O.co2     1 SUB1       -0.535
     15 O12        23.7090   -3.5430    7.5680 O.co2     1 SUB1       -0.535
     16 O13        24.9660   -1.4700    7.9690 O.co2     1 SUB1       -0.535
     17 P4         21.7740   -3.5700   15.5870 P.3       1 SUB1        0.206
     18 O41        20.7220   -2.5200   15.5470 O.co2     1 SUB1       -0.535
     19 O42        21.3360   -4.8620   15.0640 O.co2     1 SUB1       -0.535
     20 O43        22.5570   -3.6840   16.8440 O.co2     1 SUB1       -0.535
     21 P5         23.1580    0.9460   14.2040 P.3       1 SUB1        0.206
     22 O51        22.0260    1.5670   14.9390 O.co2     1 SUB1       -0.535
     23 O52        24.2190    0.3100   15.0370 O.co2     1 SUB1       -0.535
     24 O53        23.6350    1.6890   13.0430 O.co2     1 SUB1       -0.535
     25 H11        24.2578   -2.1593   10.3582 H         1 SUB1        0.070
     26 H21        22.9903   -4.2687   10.0260 H         1 SUB1        0.065
     27 H31        24.0377   -3.8449   12.2294 H         1 SUB1        0.065
     28 H41        21.2904   -2.6585   12.9589 H         1 SUB1        0.071
     29 H51        24.0616   -1.3515   12.7428 H         1 SUB1        0.071
     30 H61        21.5096   -0.9507   11.0734 H         1 SUB1        0.065
     31 H81        20.8009   -4.3344   10.8030 H         1 SUB1        0.210
     32 H91        22.6186   -5.2403   13.3998 H         1 SUB1        0.210
     33 H121       22.8171    0.9425   11.3533 H         1 SUB1        0.210
@<TRIPOS>BOND
     1    1    7 1  
     2    1    6 1  
     3    1    2 1  
     4    2    8 1  
     5    2    3 1  
     6    3    9 1  
     7    3    4 1  
     8    4   10 1  
     9    4    5 1  
    10    5   11 1  
    11    5    6 1  
    12    6   12 1  
    13   11   21 1  
    14   21   24 2  
    15   21   23 2  
    16   21   22 2  
    17   10   17 1  
    18   17   20 2  
    19   17   19 2  
    20   17   18 2  
    21    7   13 1  
    22   13   16 2  
    23   13   15 2  
    24   13   14 2  
    25    1   25 1  
    26    2   26 1  
    27    3   27 1  
    28    4   28 1  
    29    5   29 1  
    30    6   30 1  
    31    8   31 1  
    32    9   32 1  
    33   12   33 1  
@<TRIPOS>SUBSTRUCTURE
     1 SUB1        1 GROUP

