### 
### Created by X-TOOL on Tue Oct 25 02:12:57 2005
### 

@<TRIPOS>MOLECULE
3pcn_ligand
   19    19     1     0     0
SMALL
GAST_HUCK


@<TRIPOS>ATOM
      1 H61        14.7077    9.9345   39.2237 H         1 SUB1        0.046
      2 H91        13.1806   11.0434   43.8558 H         1 SUB1        0.050
      3 H101       13.4951   12.8867   42.1680 H         1 SUB1        0.045
      4 H111       13.5773   13.3498   39.4882 H         1 SUB1        0.063
      5 C1         14.0730   11.5350   40.5930 C.ar      1 SUB1       -0.048
      6 C2         14.3540   10.1820   40.2180 C.ar      1 SUB1       -0.037
      7 C3         14.1580    9.2130   41.1660 C.ar      1 SUB1        0.111
      8 C4         13.7400    9.5050   42.4530 C.ar      1 SUB1        0.110
      9 C5         13.4970   10.8170   42.8440 C.ar      1 SUB1       -0.047
     10 C6         13.6720   11.8540   41.8900 C.ar      1 SUB1       -0.076
     11 C7         14.4480   12.6880   39.6060 C.3       1 SUB1        0.011
     12 C8         15.6910   13.5590   40.1290 C.2       1 SUB1        0.035
     13 O1         16.8150   13.1380   39.7260 O.co2     1 SUB1       -0.567
     14 O2         15.4930   14.5000   40.8920 O.co2     1 SUB1       -0.567
     15 O3         14.3350    7.8810   40.8960 O.3       1 SUB1       -0.338
     16 O4         13.5820    8.3990   43.2670 O.3       1 SUB1       -0.341
     17 H112       14.7091   12.2487   38.6319 H         1 SUB1        0.063
     18 H151       14.1514    7.3734   41.6778 H         1 SUB1        0.244
     19 H161       12.9315    7.8191   42.8887 H         1 SUB1        0.243
@<TRIPOS>BOND
     1    6    1 1  
     2    9    2 1  
     3   10    3 1  
     4    5   11 1  
     5    5   10 ar 
     6    6    5 ar 
     7    7    6 ar 
     8    7   15 1  
     9    8    7 ar 
    10    8   16 1  
    11    8    9 ar 
    12    9   10 ar 
    13   11   12 1  
    14   12   14 2  
    15   12   13 2  
    16   11    4 1  
    17   11   17 1  
    18   15   18 1  
    19   16   19 1  
@<TRIPOS>SUBSTRUCTURE
     1 SUB1        1 GROUP

