3pcn_ligand
  -I-interpret- 

 19 19  0  0  0  0  0  0  0  0999 V2000
   14.7077    9.9345   39.2237 H   0  0  0  0  0
   13.1806   11.0434   43.8558 H   0  0  0  0  0
   13.4951   12.8867   42.1680 H   0  0  0  0  0
   13.5773   13.3498   39.4882 H   0  0  0  0  0
   14.0730   11.5350   40.5930 C   0  0  0  0  0
   14.3540   10.1820   40.2180 C   0  0  0  0  0
   14.1580    9.2130   41.1660 C   0  0  0  0  0
   13.7400    9.5050   42.4530 C   0  0  0  0  0
   13.4970   10.8170   42.8440 C   0  0  0  0  0
   13.6720   11.8540   41.8900 C   0  0  0  0  0
   14.4480   12.6880   39.6060 C   0  0  0  0  0
   15.6910   13.5590   40.1290 C   0  0  0  0  0
   16.8150   13.1380   39.7260 O   0  5  0  0  0
   15.4930   14.5000   40.8920 O   0  0  0  0  0
   14.3350    7.8810   40.8960 O   0  0  0  0  0
   13.5820    8.3990   43.2670 O   0  0  0  0  0
   14.7091   12.2487   38.6319 H   0  0  0  0  0
   14.1514    7.3734   41.6778 H   0  0  0  0  0
   12.9315    7.8191   42.8887 H   0  0  0  0  0
  6  1  1  0  0  0
  9  2  1  0  0  0
 10  3  1  0  0  0
  5 11  1  0  0  0
  5 10  4  0  0  0
  6  5  4  0  0  0
  7  6  4  0  0  0
  7 15  1  0  0  0
  8  7  4  0  0  0
  8 16  1  0  0  0
  8  9  4  0  0  0
  9 10  4  0  0  0
 11 12  1  0  0  0
 12 14  2  0  0  0
 12 13  1  0  0  0
 11  4  1  0  0  0
 11 17  1  0  0  0
 15 18  1  0  0  0
 16 19  1  0  0  0
M  END
$$$$
