### 
### Created by X-TOOL on Tue Oct 25 02:34:10 2005
### 

@<TRIPOS>MOLECULE
1jmf_ligand
   31    32     1     0     0
SMALL
GAST_HUCK


@<TRIPOS>ATOM
      1 N1         14.7000   46.2250  -51.5450 N.am      1 SUB1       -0.162
      2 C2         14.1990   44.9350  -51.3010 C.2       1 SUB1        0.333
      3 N3         13.2050   44.7180  -50.3860 N.am      1 SUB1       -0.186
      4 C4         12.6180   45.6900  -49.6300 C.2       1 SUB1        0.182
      5 C5         13.1670   47.0690  -49.8880 C.2       1 SUB1        0.006
      6 C6         14.2180   47.2810  -50.8550 C.2       1 SUB1        0.059
      7 O2         14.5820   43.9050  -51.8200 O.2       1 SUB1       -0.382
      8 O4         11.7630   45.2880  -48.8340 O.2       1 SUB1       -0.412
      9 C1         15.5920   46.3810  -52.7540 C.3       1 SUB1        0.180
     10 C2         14.8940   46.1230  -54.0930 C.3       1 SUB1        0.032
     11 C3         15.9730   46.3300  -55.1410 C.3       1 SUB1        0.089
     12 C4         16.8350   47.4990  -54.6470 C.3       1 SUB1        0.115
     13 O3         16.7760   45.1580  -55.2110 O.3       1 SUB1       -0.389
     14 O4         16.3780   47.6000  -53.1770 O.3       1 SUB1       -0.339
     15 C5         16.5160   48.7610  -55.4490 C.3       1 SUB1        0.094
     16 O5         16.8950   48.5750  -56.8760 O.3       1 SUB1       -0.320
     17 P          15.9400   49.1560  -58.0410 P.3       1 SUB1        0.205
     18 O1P        16.6270   49.3060  -59.3490 O.co2     1 SUB1       -0.535
     19 O2P        14.9130   48.1150  -58.1330 O.co2     1 SUB1       -0.535
     20 O3P        15.3230   50.4200  -57.6170 O.co2     1 SUB1       -0.535
     21 H31        12.8856   43.7785  -50.2625 H         1 SUB1        0.226
     22 H51        12.7653   47.9182  -49.3372 H         1 SUB1        0.026
     23 H61        14.6169   48.2798  -51.0257 H         1 SUB1        0.118
     24 H91        16.3411   45.5909  -52.5976 H         1 SUB1        0.097
     25 H101       14.0678   46.8337  -54.2423 H         1 SUB1        0.034
     26 H102       14.5054   45.0948  -54.1353 H         1 SUB1        0.034
     27 H111       15.5316   46.5535  -56.1235 H         1 SUB1        0.062
     28 H121       17.9099   47.2768  -54.7192 H         1 SUB1        0.065
     29 H131       16.2468   44.4307  -55.5165 H         1 SUB1        0.210
     30 H151       17.0793   49.6085  -55.0314 H         1 SUB1        0.064
     31 H152       15.4379   48.9695  -55.3840 H         1 SUB1        0.064
@<TRIPOS>BOND
     1    1    2 am 
     2    1    6 am 
     3    1    9 1  
     4    2    3 am 
     5    2    7 2  
     6    3    4 am 
     7    4    5 1  
     8    4    8 2  
     9    5    6 2  
    10    9   10 1  
    11    9   14 1  
    12   10   11 1  
    13   11   12 1  
    14   11   13 1  
    15   12   14 1  
    16   12   15 1  
    17   15   16 1  
    18   16   17 1  
    19   17   18 2  
    20   17   19 2  
    21   17   20 2  
    22    3   21 1  
    23    5   22 1  
    24    6   23 1  
    25    9   24 1  
    26   10   25 1  
    27   10   26 1  
    28   11   27 1  
    29   12   28 1  
    30   13   29 1  
    31   15   30 1  
    32   15   31 1  
@<TRIPOS>SUBSTRUCTURE
     1 SUB1        1 GROUP

