1g3e_ligand
  -I-interpret- 

 30 30  0  0  0  0  0  0  0  0999 V2000
   42.7465   -4.6729   27.0179 H   0  0  0  0  0
   44.1852   -0.0395   27.8476 H   0  0  0  0  0
   44.9748   -1.2276   25.8565 H   0  0  0  0  0
   42.9385    0.0963   29.8616 H   0  0  0  0  0
   41.5251   -3.1751   29.8798 H   0  0  0  0  0
   44.9260   -3.4331   23.1411 H   0  0  0  0  0
   43.9090   -3.0280   26.3020 C   0  0  0  0  0
   43.0610   -3.6520   27.2020 C   0  0  0  0  0
   42.6050   -2.9890   28.3410 C   0  0  0  0  0
   43.0120   -1.6730   28.5850 C   0  0  0  0  0
   43.8640   -1.0600   27.6730 C   0  0  0  0  0
   44.3080   -1.7270   26.5500 C   0  0  0  0  0
   42.5750   -0.9240   29.7480 C   0  0  0  0  0
   44.2750   -3.6840   25.0640 C   0  3  0  0  0
   41.7830   -3.7040   29.1340 O   0  0  0  0  0
   44.6660   -2.9650   24.0210 N   0  0  0  0  0
   44.2170   -5.0050   24.9720 N   0  0  0  0  0
   41.7780   -1.3900   30.6640 N   0  0  0  0  0
   41.4160   -0.5250   31.7830 C   0  0  0  0  0
   40.0620    0.1260   31.5190 C   0  0  0  0  0
   41.3650   -1.3380   33.0730 C   0  0  0  0  0
   42.1840   -1.0980   33.9710 O   0  0  0  0  0
   40.4490   -2.2430   33.1320 O   0  5  0  0  0
   44.7098   -1.9383   24.0906 H   0  0  0  0  0
   43.9134   -5.5648   25.7815 H   0  0  0  0  0
   44.4755   -5.4717   24.0910 H   0  0  0  0  0
   42.1767    0.2627   31.8872 H   0  0  0  0  0
   39.7962    0.7758   32.3659 H   0  0  0  0  0
   39.2963   -0.6550   31.4017 H   0  0  0  0  0
   40.1171    0.7267   30.5992 H   0  0  0  0  0
  8  1  1  0  0  0
 11  2  1  0  0  0
 12  3  1  0  0  0
 13  4  1  0  0  0
  7 14  1  0  0  0
  7 12  4  0  0  0
  8  7  4  0  0  0
  9  8  4  0  0  0
  9 15  1  0  0  0
 10  9  4  0  0  0
 10 13  1  0  0  0
 10 11  4  0  0  0
 11 12  4  0  0  0
 13 18  2  0  0  0
 18 19  1  0  0  0
 19 21  1  0  0  0
 19 20  1  0  0  0
 21 23  1  0  0  0
 21 22  2  0  0  0
 14 17  1  0  0  0
 14 16  1  0  0  0
 15  5  1  0  0  0
 16  6  1  0  0  0
 16 24  1  0  0  0
 17 25  1  0  0  0
 17 26  1  0  0  0
 19 27  1  0  0  0
 20 28  1  0  0  0
 20 29  1  0  0  0
 20 30  1  0  0  0
M  END
$$$$
