### 
### Created by X-TOOL on Mon Oct 24 22:43:42 2005
### 

@<TRIPOS>MOLECULE
1g3e_ligand
   30    30     1     0     0
SMALL
GAST_HUCK


@<TRIPOS>ATOM
      1 H81        42.7465   -4.6729   27.0179 H         1 SUB1        0.061
      2 H111       44.1852   -0.0395   27.8476 H         1 SUB1        0.066
      3 H121       44.9748   -1.2276   25.8565 H         1 SUB1        0.060
      4 H131       42.9385    0.0963   29.8616 H         1 SUB1        0.108
      5 H151       41.5251   -3.1751   29.8798 H         1 SUB1        0.253
      6 H161       44.9260   -3.4331   23.1411 H         1 SUB1        0.192
      7 C1         43.9090   -3.0280   26.3020 C.ar      1 SUB1        0.185
      8 C2         43.0610   -3.6520   27.2020 C.ar      1 SUB1        0.032
      9 C3         42.6050   -2.9890   28.3410 C.ar      1 SUB1        0.116
     10 C4         43.0120   -1.6730   28.5850 C.ar      1 SUB1        0.044
     11 C5         43.8640   -1.0600   27.6730 C.ar      1 SUB1       -0.045
     12 C6         44.3080   -1.7270   26.5500 C.ar      1 SUB1       -0.009
     13 C7         42.5750   -0.9240   29.7480 C.2       1 SUB1        0.017
     14 C8         44.2750   -3.6840   25.0640 C.cat     1 SUB1        0.318
     15 O1         41.7830   -3.7040   29.1340 O.3       1 SUB1       -0.324
     16 N1         44.6660   -2.9650   24.0210 N.pl3     1 SUB1       -0.199
     17 N2         44.2170   -5.0050   24.9720 N.pl3     1 SUB1       -0.199
     18 N          41.7780   -1.3900   30.6640 N.2       1 SUB1       -0.324
     19 CA         41.4160   -0.5250   31.7830 C.3       1 SUB1        0.052
     20 CB         40.0620    0.1260   31.5190 C.3       1 SUB1       -0.040
     21 C          41.3650   -1.3380   33.0730 C.2       1 SUB1        0.042
     22 O          42.1840   -1.0980   33.9710 O.co2     1 SUB1       -0.565
     23 OXT        40.4490   -2.2430   33.1320 O.co2     1 SUB1       -0.565
     24 H162       44.7098   -1.9383   24.0906 H         1 SUB1        0.192
     25 H171       43.9134   -5.5648   25.7815 H         1 SUB1        0.192
     26 H172       44.4755   -5.4717   24.0910 H         1 SUB1        0.192
     27 H191       42.1767    0.2627   31.8872 H         1 SUB1        0.064
     28 H201       39.7962    0.7758   32.3659 H         1 SUB1        0.028
     29 H202       39.2963   -0.6550   31.4017 H         1 SUB1        0.028
     30 H203       40.1171    0.7267   30.5992 H         1 SUB1        0.028
@<TRIPOS>BOND
     1    8    1 1  
     2   11    2 1  
     3   12    3 1  
     4   13    4 1  
     5    7   14 1  
     6    7   12 ar 
     7    8    7 ar 
     8    9    8 ar 
     9    9   15 1  
    10   10    9 ar 
    11   10   13 1  
    12   10   11 ar 
    13   11   12 ar 
    14   13   18 2  
    15   18   19 1  
    16   19   21 1  
    17   19   20 1  
    18   21   23 2  
    19   21   22 2  
    20   14   17 1  
    21   14   16 1  
    22   15    5 1  
    23   16    6 1  
    24   16   24 1  
    25   17   25 1  
    26   17   26 1  
    27   19   27 1  
    28   20   28 1  
    29   20   29 1  
    30   20   30 1  
@<TRIPOS>SUBSTRUCTURE
     1 SUB1        1 GROUP

