### 
### Created by X-TOOL on Mon Oct 24 23:44:01 2005
### 

@<TRIPOS>MOLECULE
1rgl_ligand
   36    38     1     0     0
SMALL
GAST_HUCK


@<TRIPOS>ATOM
      1 P          19.9730   13.7230    1.2210 P.3       1 SUB1        0.206
      2 O1P        21.0390   14.4190    2.0320 O.co2     1 SUB1       -0.535
      3 O2P        19.7390   12.3150    1.6690 O.co2     1 SUB1       -0.535
      4 O3P        18.7110   14.5160    1.0680 O.co2     1 SUB1       -0.535
      5 O5         25.9810   11.8310   -1.7380 O.3       1 SUB1       -0.392
      6 C5         24.9080   12.2890   -0.8550 C.3       1 SUB1        0.073
      7 C4         23.8590   13.1470   -1.5770 C.3       1 SUB1        0.112
      8 O4         22.9950   12.2990   -2.3790 O.3       1 SUB1       -0.354
      9 C3         22.9060   13.9170   -0.6690 C.3       1 SUB1        0.117
     10 O3         22.5150   15.1310   -1.3260 O.3       1 SUB1       -0.386
     11 C2         21.7510   12.9170   -0.4870 C.3       1 SUB1        0.141
     12 O2         20.5270   13.5590   -0.2440 O.3       1 SUB1       -0.313
     13 C1         21.6750   12.3280   -1.8910 C.3       1 SUB1        0.147
     14 N9         21.1660   10.9690   -1.9760 N.ar      1 SUB1       -0.283
     15 C8         20.2250   10.4820   -2.8690 C.ar      1 SUB1        0.072
     16 N7         20.0050    9.1960   -2.7140 N.ar      1 SUB1       -0.235
     17 C5         20.8660    8.8110   -1.6670 C.ar      1 SUB1        0.218
     18 C6         21.0770    7.5400   -1.0480 C.2       1 SUB1        0.351
     19 O6         20.5250    6.4590   -1.2980 O.2       1 SUB1       -0.291
     20 N1         22.0420    7.5970   -0.0320 N.am      1 SUB1       -0.100
     21 C2         22.7150    8.7360    0.3410 C.2       1 SUB1        0.406
     22 N2         23.6110    8.6010    1.3260 N.pl3     1 SUB1       -0.224
     23 N3         22.5300    9.9260   -0.2180 N.2       1 SUB1       -0.054
     24 C4         21.5890    9.8940   -1.2050 C.ar      1 SUB1        0.220
     25 H51        26.5977   11.3075   -1.2399 H         1 SUB1        0.209
     26 H61        25.3520   12.8867   -0.0453 H         1 SUB1        0.058
     27 H62        24.4061   11.4083   -0.4279 H         1 SUB1        0.058
     28 H71        24.3918   13.8609   -2.2223 H         1 SUB1        0.065
     29 H91        23.3702   14.1571    0.2989 H         1 SUB1        0.065
     30 H101       21.9208   15.6159   -0.7654 H         1 SUB1        0.210
     31 H111       21.9650   12.1686    0.2902 H         1 SUB1        0.071
     32 H131       21.0459   12.9797   -2.5151 H         1 SUB1        0.075
     33 H151       19.7263   11.0935   -3.6122 H         1 SUB1        0.120
     34 H201       22.2553    6.7501    0.4550 H         1 SUB1        0.306
     35 H221       24.1473    9.4185    1.6499 H         1 SUB1        0.221
     36 H222       23.7642    7.6796    1.7601 H         1 SUB1        0.221
@<TRIPOS>BOND
     1    1    2 2  
     2    1    3 2  
     3    1    4 2  
     4   12    1 1  
     5    6    5 1  
     6    7    6 1  
     7    7    8 1  
     8    9    7 1  
     9    8   13 1  
    10    9   10 1  
    11   11    9 1  
    12   11   12 1  
    13   11   13 1  
    14   13   14 1  
    15   14   15 ar 
    16   14   24 ar 
    17   15   16 ar 
    18   16   17 ar 
    19   17   18 1  
    20   17   24 ar 
    21   18   19 2  
    22   18   20 am 
    23   20   21 am 
    24   21   22 1  
    25   21   23 2  
    26   23   24 1  
    27    5   25 1  
    28    6   26 1  
    29    6   27 1  
    30    7   28 1  
    31    9   29 1  
    32   10   30 1  
    33   11   31 1  
    34   13   32 1  
    35   15   33 1  
    36   20   34 1  
    37   22   35 1  
    38   22   36 1  
@<TRIPOS>SUBSTRUCTURE
     1 SUB1        1 GROUP

