1y1m_ligand
  -I-interpret- 

 20 20  0  0  0  0  0  0  0  0999 V2000
    1.5890   -4.3680    0.4860 N   0  3  0  0  0
    0.5990   -6.6920    1.1810 O   0  5  0  0  0
    1.9010   -4.7880    1.8810 C   0  0  0  0  0
    1.3980   -6.2420    2.0740 C   0  0  0  0  0
    3.4030   -4.6300    2.1750 C   0  0  0  0  0
    1.1950   -3.8660    2.8930 C   0  0  0  0  0
    1.7540   -6.9110    3.0480 O   0  0  0  0  0
    3.5140   -3.5170    3.1850 C   0  0  0  0  0
    2.2020   -2.7670    3.1550 C   0  0  0  0  0
    1.9088   -3.4233    0.3401 H   0  0  0  0  0
    0.5932   -4.4124    0.3365 H   0  0  0  0  0
    2.0540   -4.9840   -0.1623 H   0  0  0  0  0
    3.9468   -4.3673    1.2556 H   0  0  0  0  0
    3.8117   -5.5636    2.5888 H   0  0  0  0  0
    0.9607   -4.4101    3.8198 H   0  0  0  0  0
    0.2690   -3.4536    2.4658 H   0  0  0  0  0
    4.3413   -2.8435    2.9168 H   0  0  0  0  0
    3.6898   -3.9323    4.1883 H   0  0  0  0  0
    2.0066   -2.2714    4.1174 H   0  0  0  0  0
    2.1913   -2.0190    2.3485 H   0  0  0  0  0
  3  1  1  0  0  0
  4  2  1  0  0  0
  3  4  1  0  0  0
  3  5  1  0  0  0
  3  6  1  0  0  0
  4  7  2  0  0  0
  5  8  1  0  0  0
  6  9  1  0  0  0
  8  9  1  0  0  0
  1 10  1  0  0  0
  1 11  1  0  0  0
  1 12  1  0  0  0
  5 13  1  0  0  0
  5 14  1  0  0  0
  6 15  1  0  0  0
  6 16  1  0  0  0
  8 17  1  0  0  0
  8 18  1  0  0  0
  9 19  1  0  0  0
  9 20  1  0  0  0
M  END
$$$$
