### 
### Created by X-TOOL on Tue Oct 25 01:55:11 2005
### 

@<TRIPOS>MOLECULE
1c86_ligand
   25    26     1     0     0
SMALL
GAST_HUCK


@<TRIPOS>ATOM
      1 O1         13.8890   44.9070   17.3510 O.3       1 SUB1       -0.365
      2 C2         13.8400   45.5110   18.6430 C.3       1 SUB1        0.090
      3 C3         12.4690   45.7520   19.0560 C.2       1 SUB1        0.057
      4 C4         11.2930   45.4210   18.1720 C.2       1 SUB1       -0.016
      5 C5         11.4470   44.7150   16.9190 C.3       1 SUB1       -0.011
      6 C6         12.8020   44.0280   17.0010 C.3       1 SUB1        0.054
      7 S13        11.9750   46.4310   20.5650 S.3       1 SUB1        0.070
      8 C14        10.3030   46.2120   20.1590 C.2       1 SUB1        0.251
      9 C15        10.0950   45.8770   18.7950 C.2       1 SUB1        0.124
     10 C16         8.8010   45.8600   18.3150 C.2       1 SUB1        0.146
     11 O17         7.6300   45.6820   19.0490 O.co2     1 SUB1       -0.495
     12 O18         8.4260   45.7710   16.9980 O.co2     1 SUB1       -0.495
     13 N19         9.2820   46.7880   20.9020 N.am      1 SUB1       -0.184
     14 C20         9.3020   47.3290   22.1800 C.2       1 SUB1        0.112
     15 C21         8.0870   47.6560   22.8400 C.2       1 SUB1       -0.089
     16 O22         6.9390   46.7860   22.7940 O.co2     1 SUB1       -0.694
     17 O23         7.9340   48.7300   23.6790 O.co2     1 SUB1       -0.694
     18 O24        10.5730   47.5160   22.8540 O.2       1 SUB1       -0.482
     19 H21        14.3796   46.4691   18.6123 H         1 SUB1        0.073
     20 H22        14.3220   44.8418   19.3709 H         1 SUB1        0.073
     21 H51        11.4246   45.4205   16.0753 H         1 SUB1        0.037
     22 H52        10.6461   43.9711   16.7963 H         1 SUB1        0.037
     23 H61        12.7413   43.2348   17.7607 H         1 SUB1        0.058
     24 H62        13.0219   43.5806   16.0205 H         1 SUB1        0.058
     25 H131        8.3930   46.8179   20.4451 H         1 SUB1        0.284
@<TRIPOS>BOND
     1    1    6 1  
     2    1    2 1  
     3    2    3 1  
     4    3    7 1  
     5    3    4 2  
     6    4    9 1  
     7    4    5 1  
     8    5    6 1  
     9    9   10 1  
    10    9    8 2  
    11    8   13 am 
    12    8    7 1  
    13   13   14 am 
    14   14   18 2  
    15   14   15 1  
    16   15   17 2  
    17   15   16 2  
    18   10   12 2  
    19   10   11 2  
    20    2   19 1  
    21    2   20 1  
    22    5   21 1  
    23    5   22 1  
    24    6   23 1  
    25    6   24 1  
    26   13   25 1  
@<TRIPOS>SUBSTRUCTURE
     1 SUB1        1 GROUP

