### 
### Created by X-TOOL on Sun Jun  3 12:17:56 2007
### 

@<TRIPOS>MOLECULE
2ff1_ligand
   33    35     1     0     0
SMALL
GAST_HUCK


@<TRIPOS>ATOM
      1 O5         16.4130   22.7730    9.4680 O.3       1 SUB1       -0.393
      2 C5         17.0670   24.0400    9.2490 C.3       1 SUB1        0.062
      3 C4         16.2080   25.3490    9.4340 C.3       1 SUB1        0.061
      4 N4         15.5360   25.2060   10.7470 N.3       1 SUB1       -0.298
      5 C3         16.9480   26.7030    9.5530 C.3       1 SUB1        0.101
      6 O3         16.2130   27.8130    8.9400 O.3       1 SUB1       -0.387
      7 C2         17.1650   26.9480   11.1090 C.3       1 SUB1        0.102
      8 O2         16.9290   28.3220   11.5300 O.3       1 SUB1       -0.386
      9 C1         16.2040   25.9590   11.8160 C.3       1 SUB1        0.053
     10 C9         16.9020   24.8770   12.8570 C.2       1 SUB1       -0.025
     11 C8         16.9640   23.5350   12.6720 C.2       1 SUB1        0.019
     12 N7         17.6350   22.9010   13.7740 N.pl3     1 SUB1       -0.290
     13 C5         17.9610   23.9660   14.6230 C.2       1 SUB1        0.135
     14 C6         18.6730   23.8680   15.9290 C.2       1 SUB1        0.241
     15 O6         19.0980   22.8450   16.4920 O.2       1 SUB1       -0.401
     16 N1         18.8180   25.1730   16.4980 N.am      1 SUB1       -0.207
     17 C2         18.3580   26.4040   15.9190 C.2       1 SUB1        0.115
     18 N3         17.7230   26.3910   14.7320 N.2       1 SUB1       -0.320
     19 C4         17.5450   25.1690   14.1190 C.2       1 SUB1        0.015
     20 H          17.0408   22.0611    9.3243 H         1 SUB1        0.209
     21 H          17.3697   24.0351    8.2019 H         1 SUB1        0.057
     22 H          17.8523   24.0973   10.0027 H         1 SUB1        0.057
     23 H          15.5999   25.4044    8.5311 H         1 SUB1        0.051
     24 H          15.5569   24.2185   11.0017 H         1 SUB1        0.124
     25 H          17.8929   26.6621    9.0112 H         1 SUB1        0.064
     26 H          16.7161   28.6240    9.0430 H         1 SUB1        0.210
     27 H          18.2083   26.7763   11.3739 H         1 SUB1        0.065
     28 H          16.0230   28.5664   11.3274 H         1 SUB1        0.210
     29 H          15.5415   26.5553   12.4433 H         1 SUB1        0.057
     30 H          16.5605   23.0093   11.8066 H         1 SUB1        0.078
     31 H          17.8283   21.9083   13.9065 H         1 SUB1        0.227
     32 H          19.2923   25.2346   17.3989 H         1 SUB1        0.252
     33 H          18.5227   27.3473   16.4397 H         1 SUB1        0.143
@<TRIPOS>BOND
     1    1    2 1  
     2    2    3 1  
     3    3    4 1  
     4    3    5 1  
     5    4    9 1  
     6    5    6 1  
     7    5    7 1  
     8    7    8 1  
     9    7    9 1  
    10    9   10 1  
    11   10   11 2  
    12   10   19 1  
    13   11   12 1  
    14   12   13 1  
    15   13   14 1  
    16   13   19 2  
    17   14   15 2  
    18   14   16 am 
    19   16   17 1  
    20   17   18 2  
    21   18   19 1  
    22    1   20 1  
    23    2   21 1  
    24    2   22 1  
    25    3   23 1  
    26    4   24 1  
    27    5   25 1  
    28    6   26 1  
    29    7   27 1  
    30    8   28 1  
    31    9   29 1  
    32   11   30 1  
    33   12   31 1  
    34   16   32 1  
    35   17   33 1  
@<TRIPOS>SUBSTRUCTURE
     1 SUB1        1 GROUP

