2ff1_ligand
  -I-interpret- 

 33 35  0  0  0  0  0  0  0  0999 V2000
   16.4130   22.7730    9.4680 O   0  0  0  0  0
   17.0670   24.0400    9.2490 C   0  0  0  0  0
   16.2080   25.3490    9.4340 C   0  0  0  0  0
   15.5360   25.2060   10.7470 N   0  0  0  0  0
   16.9480   26.7030    9.5530 C   0  0  0  0  0
   16.2130   27.8130    8.9400 O   0  0  0  0  0
   17.1650   26.9480   11.1090 C   0  0  0  0  0
   16.9290   28.3220   11.5300 O   0  0  0  0  0
   16.2040   25.9590   11.8160 C   0  0  0  0  0
   16.9020   24.8770   12.8570 C   0  0  0  0  0
   16.9640   23.5350   12.6720 C   0  0  0  0  0
   17.6350   22.9010   13.7740 N   0  0  0  0  0
   17.9610   23.9660   14.6230 C   0  0  0  0  0
   18.6730   23.8680   15.9290 C   0  0  0  0  0
   19.0980   22.8450   16.4920 O   0  0  0  0  0
   18.8180   25.1730   16.4980 N   0  0  0  0  0
   18.3580   26.4040   15.9190 C   0  0  0  0  0
   17.7230   26.3910   14.7320 N   0  0  0  0  0
   17.5450   25.1690   14.1190 C   0  0  0  0  0
   17.0408   22.0611    9.3243 H   0  0  0  0  0
   17.3697   24.0351    8.2019 H   0  0  0  0  0
   17.8523   24.0973   10.0027 H   0  0  0  0  0
   15.5999   25.4044    8.5311 H   0  0  0  0  0
   15.5569   24.2185   11.0017 H   0  0  0  0  0
   17.8929   26.6621    9.0112 H   0  0  0  0  0
   16.7161   28.6240    9.0430 H   0  0  0  0  0
   18.2083   26.7763   11.3739 H   0  0  0  0  0
   16.0230   28.5664   11.3274 H   0  0  0  0  0
   15.5415   26.5553   12.4433 H   0  0  0  0  0
   16.5605   23.0093   11.8066 H   0  0  0  0  0
   17.8283   21.9083   13.9065 H   0  0  0  0  0
   19.2923   25.2346   17.3989 H   0  0  0  0  0
   18.5227   27.3473   16.4397 H   0  0  0  0  0
  1  2  1  0  0  0
  2  3  1  0  0  0
  3  4  1  0  0  0
  3  5  1  0  0  0
  4  9  1  0  0  0
  5  6  1  0  0  0
  5  7  1  0  0  0
  7  8  1  0  0  0
  7  9  1  0  0  0
  9 10  1  0  0  0
 10 11  2  0  0  0
 10 19  1  0  0  0
 11 12  1  0  0  0
 12 13  1  0  0  0
 13 14  1  0  0  0
 13 19  2  0  0  0
 14 15  2  0  0  0
 14 16  1  0  0  0
 16 17  1  0  0  0
 17 18  2  0  0  0
 18 19  1  0  0  0
  1 20  1  0  0  0
  2 21  1  0  0  0
  2 22  1  0  0  0
  3 23  1  0  0  0
  4 24  1  0  0  0
  5 25  1  0  0  0
  6 26  1  0  0  0
  7 27  1  0  0  0
  8 28  1  0  0  0
  9 29  1  0  0  0
 11 30  1  0  0  0
 12 31  1  0  0  0
 16 32  1  0  0  0
 17 33  1  0  0  0
M  END
$$$$
