1o2q_ligand
  -I-interpret- 

 47 50  0  0  0  0  0  0  0  0999 V2000
   43.9640   -3.0750   25.5290 C   0  0  0  0  0
   43.8000   -1.6630   25.4310 C   0  0  0  0  0
   43.7680   -0.6590   23.9520 Cl  0  0  0  0  0
   43.5860   -0.8950   26.5910 C   0  0  0  0  0
   43.5190   -1.5400   27.8050 C   0  0  0  0  0
   43.7030   -2.8790   27.9000 C   0  0  0  0  0
   43.9140   -3.6880   26.7890 C   0  0  0  0  0
   44.2150   -3.8470   24.3760 C   0  3  0  0  0
   43.7330   -5.0680   24.2340 N   0  0  0  0  0
   44.9630   -3.2720   23.4650 N   0  0  0  0  0
   43.3540   -1.0440   29.0030 N   0  0  0  0  0
   43.5970   -3.2060   29.2180 C   0  0  0  0  0
   43.3790   -2.0170   29.8920 C   0  0  0  0  0
   43.1930   -1.8760   31.2810 C   0  0  0  0  0
   43.0120   -3.0130   32.0980 C   0  0  0  0  0
   42.8350   -2.8620   33.4840 C   0  0  0  0  0
   42.8390   -1.6020   34.0650 C   0  0  0  0  0
   43.0170   -0.4610   33.2800 C   0  0  0  0  0
   43.0550    0.8110   33.8230 O   0  0  0  0  0
   43.1920   -0.5890   31.8840 C   0  0  0  0  0
   43.3530    0.5560   31.1180 O   0  0  0  0  0
   42.5230    2.4500   35.3400 C   0  0  0  0  0
   43.1280    1.0880   35.2210 C   0  0  0  0  0
   44.5850    1.1810   35.6840 C   0  0  0  0  0
   44.8640    2.6230   35.9920 C   0  0  0  0  0
   43.5380    3.3190   36.0270 C   0  0  0  0  0
   43.4520    0.1750   26.5340 H   0  0  0  0  0
   44.0330   -4.7550   26.8950 H   0  0  0  0  0
   43.2480   -5.4900   25.0180 H   0  0  0  0  0
   43.8710   -5.6510   23.4420 H   0  0  0  0  0
   45.3630   -2.3660   23.6480 H   0  0  0  0  0
   45.2050   -3.7120   22.6140 H   0  0  0  0  0
   43.2020   -0.0950   29.2070 H   0  0  0  0  0
   43.6800   -4.1960   29.6410 H   0  0  0  0  0
   43.0070   -4.0030   31.6650 H   0  0  0  0  0
   42.6970   -3.7380   34.1010 H   0  0  0  0  0
   42.6980   -1.5250   35.1320 H   0  0  0  0  0
   42.5600    0.3690   35.7930 H   0  0  0  0  0
   44.7050    0.6360   36.6090 H   0  0  0  0  0
   45.2820    0.7870   34.9800 H   0  0  0  0  0
   45.5020    3.0660   35.2420 H   0  0  0  0  0
   45.3360    2.7340   36.9590 H   0  0  0  0  0
   43.6280    4.2350   35.4770 H   0  0  0  0  0
   43.2330    3.5470   37.0410 H   0  0  0  0  0
   42.2850    2.8680   34.3710 H   0  0  0  0  0
   41.6170    2.3960   35.9290 H   0  0  0  0  0
   43.4588    0.3130   30.2057 H   0  0  0  0  0
  1  2  4  0  0  0
  7  1  4  0  0  0
  1  8  1  0  0  0
  2  3  1  0  0  0
  4  2  4  0  0  0
  5  4  4  0  0  0
  4 27  1  0  0  0
  6  5  4  0  0  0
 11  5  1  0  0  0
  6  7  4  0  0  0
 12  6  1  0  0  0
  7 28  1  0  0  0
  8  9  1  0  0  0
  8 10  1  0  0  0
  9 29  1  0  0  0
  9 30  1  0  0  0
 10 31  1  0  0  0
 10 32  1  0  0  0
 13 11  1  0  0  0
 11 33  1  0  0  0
 13 12  2  0  0  0
 12 34  1  0  0  0
 14 13  1  0  0  0
 14 15  4  0  0  0
 20 14  4  0  0  0
 16 15  4  0  0  0
 15 35  1  0  0  0
 17 16  4  0  0  0
 16 36  1  0  0  0
 18 17  4  0  0  0
 17 37  1  0  0  0
 19 18  1  0  0  0
 18 20  4  0  0  0
 23 19  1  0  0  0
 20 21  1  0  0  0
 24 23  1  0  0  0
 23 38  1  0  0  0
 25 24  1  0  0  0
 24 39  1  0  0  0
 24 40  1  0  0  0
 26 25  1  0  0  0
 25 41  1  0  0  0
 25 42  1  0  0  0
 26 43  1  0  0  0
 26 44  1  0  0  0
 22 46  1  0  0  0
 22 45  1  0  0  0
 26 22  1  0  0  0
 23 22  1  0  0  0
 21 47  1  0  0  0
M  END
$$$$
