### 
### Created by X-TOOL on Mon Oct 24 22:00:41 2005
### 

@<TRIPOS>MOLECULE
1o2q_ligand
   47    50     1     0     0
SMALL
GAST_HUCK


@<TRIPOS>ATOM
      1 C1         43.9640   -3.0750   25.5290 C.ar      1 SUB1        0.183
      2 C2         43.8000   -1.6630   25.4310 C.ar      1 SUB1        0.079
      3 CL2        43.7680   -0.6590   23.9520 Cl        1 SUB1       -0.075
      4 C3         43.5860   -0.8950   26.5910 C.ar      1 SUB1       -0.025
      5 C4         43.5190   -1.5400   27.8050 C.ar      1 SUB1        0.063
      6 C5         43.7030   -2.8790   27.9000 C.ar      1 SUB1       -0.022
      7 C6         43.9140   -3.6880   26.7890 C.ar      1 SUB1       -0.020
      8 C7         44.2150   -3.8470   24.3760 C.cat     1 SUB1        0.310
      9 N1         43.7330   -5.0680   24.2340 N.pl3     1 SUB1       -0.201
     10 N2         44.9630   -3.2720   23.4650 N.pl3     1 SUB1       -0.201
     11 N3         43.3540   -1.0440   29.0030 N.pl3     1 SUB1       -0.276
     12 CN4        43.5970   -3.2060   29.2180 C.2       1 SUB1       -0.058
     13 C8         43.3790   -2.0170   29.8920 C.2       1 SUB1        0.058
     14 C1'        43.1930   -1.8760   31.2810 C.ar      1 SUB1        0.028
     15 C2'        43.0120   -3.0130   32.0980 C.ar      1 SUB1       -0.071
     16 C3'        42.8350   -2.8620   33.4840 C.ar      1 SUB1       -0.081
     17 C4'        42.8390   -1.6020   34.0650 C.ar      1 SUB1       -0.041
     18 C5'        43.0170   -0.4610   33.2800 C.ar      1 SUB1        0.122
     19 O5'        43.0550    0.8110   33.8230 O.3       1 SUB1       -0.319
     20 C6'        43.1920   -0.5890   31.8840 C.ar      1 SUB1        0.130
     21 O6'        43.3530    0.5560   31.1180 O.3       1 SUB1       -0.334
     22 C1''       42.5230    2.4500   35.3400 C.3       1 SUB1       -0.023
     23 C2''       43.1280    1.0880   35.2210 C.3       1 SUB1        0.079
     24 C3''       44.5850    1.1810   35.6840 C.3       1 SUB1       -0.023
     25 C4''       44.8640    2.6230   35.9920 C.3       1 SUB1       -0.050
     26 C5''       43.5380    3.3190   36.0270 C.3       1 SUB1       -0.050
     27 H41        43.4520    0.1750   26.5340 H         1 SUB1        0.055
     28 H71        44.0330   -4.7550   26.8950 H         1 SUB1        0.058
     29 H91        43.2480   -5.4900   25.0180 H         1 SUB1        0.192
     30 H92        43.8710   -5.6510   23.4420 H         1 SUB1        0.192
     31 H101       45.3630   -2.3660   23.6480 H         1 SUB1        0.192
     32 H102       45.2050   -3.7120   22.6140 H         1 SUB1        0.192
     33 H111       43.2020   -0.0950   29.2070 H         1 SUB1        0.223
     34 H121       43.6800   -4.1960   29.6410 H         1 SUB1        0.029
     35 H151       43.0070   -4.0030   31.6650 H         1 SUB1        0.050
     36 H161       42.6970   -3.7380   34.1010 H         1 SUB1        0.050
     37 H171       42.6980   -1.5250   35.1320 H         1 SUB1        0.051
     38 H231       42.5600    0.3690   35.7930 H         1 SUB1        0.064
     39 H241       44.7050    0.6360   36.6090 H         1 SUB1        0.029
     40 H242       45.2820    0.7870   34.9800 H         1 SUB1        0.029
     41 H251       45.5020    3.0660   35.2420 H         1 SUB1        0.027
     42 H252       45.3360    2.7340   36.9590 H         1 SUB1        0.027
     43 H261       43.6280    4.2350   35.4770 H         1 SUB1        0.027
     44 H262       43.2330    3.5470   37.0410 H         1 SUB1        0.027
     45 H221       42.2850    2.8680   34.3710 H         1 SUB1        0.029
     46 H222       41.6170    2.3960   35.9290 H         1 SUB1        0.029
     47 H211       43.4588    0.3130   30.2057 H         1 SUB1        0.246
@<TRIPOS>BOND
     1    1    2 ar 
     2    7    1 ar 
     3    1    8 1  
     4    2    3 1  
     5    4    2 ar 
     6    5    4 ar 
     7    4   27 1  
     8    6    5 ar 
     9   11    5 1  
    10    6    7 ar 
    11   12    6 1  
    12    7   28 1  
    13    8    9 1  
    14    8   10 1  
    15    9   29 1  
    16    9   30 1  
    17   10   31 1  
    18   10   32 1  
    19   13   11 1  
    20   11   33 1  
    21   13   12 2  
    22   12   34 1  
    23   14   13 1  
    24   14   15 ar 
    25   20   14 ar 
    26   16   15 ar 
    27   15   35 1  
    28   17   16 ar 
    29   16   36 1  
    30   18   17 ar 
    31   17   37 1  
    32   19   18 1  
    33   18   20 ar 
    34   23   19 1  
    35   20   21 1  
    36   24   23 1  
    37   23   38 1  
    38   25   24 1  
    39   24   39 1  
    40   24   40 1  
    41   26   25 1  
    42   25   41 1  
    43   25   42 1  
    44   26   43 1  
    45   26   44 1  
    46   22   46 1  
    47   22   45 1  
    48   26   22 1  
    49   23   22 1  
    50   21   47 1  
@<TRIPOS>SUBSTRUCTURE
     1 SUB1        1 GROUP

