### 
### Created by X-TOOL on Tue Oct 25 02:22:51 2005
### 

@<TRIPOS>MOLECULE
1fl3_ligand
   41    42     1     0     0
SMALL
GAST_HUCK


@<TRIPOS>ATOM
      1 C1         59.5400    3.3230  -29.6790 C.ar      1 SUB1       -0.058
      2 C2         58.3370    3.9800  -29.3220 C.ar      1 SUB1       -0.064
      3 C3         57.2970    3.2470  -28.6820 C.ar      1 SUB1       -0.064
      4 C4         57.4620    1.8800  -28.3950 C.ar      1 SUB1       -0.064
      5 C5         58.6460    1.2260  -28.7450 C.ar      1 SUB1       -0.058
      6 C6         59.6890    1.9480  -29.3870 C.ar      1 SUB1       -0.032
      7 C7         60.9550    1.2720  -29.7800 C.2       1 SUB1       -0.062
      8 C8         61.2760   -0.0050  -29.5310 C.2       1 SUB1       -0.064
      9 C9         62.5820   -0.5900  -29.9670 C.ar      1 SUB1       -0.037
     10 C10        63.4690    0.1920  -30.7440 C.ar      1 SUB1       -0.065
     11 C11        64.6930   -0.3390  -31.1580 C.ar      1 SUB1       -0.037
     12 C12        65.0730   -1.6670  -30.8320 C.ar      1 SUB1        0.072
     13 C13        64.1800   -2.4700  -30.0440 C.ar      1 SUB1       -0.037
     14 C14        62.9280   -1.9170  -29.6130 C.ar      1 SUB1       -0.065
     15 N15        66.3590   -2.0810  -31.3510 N.am      1 SUB1       -0.231
     16 C16        66.9390   -3.2280  -31.6390 C.2       1 SUB1        0.206
     17 C17        68.4550   -3.1800  -31.8220 C.3       1 SUB1        0.047
     18 C18        69.0110   -4.0680  -32.8790 C.3       1 SUB1       -0.024
     19 C19        70.5010   -3.9830  -32.9240 C.3       1 SUB1       -0.012
     20 C20        71.0470   -4.8510  -34.0070 C.2       1 SUB1        0.028
     21 O21        71.4070   -4.0790  -35.1020 O.co2     1 SUB1       -0.567
     22 O22        66.3740   -4.2990  -31.7320 O.2       1 SUB1       -0.383
     23 O23        71.0830   -6.0660  -33.9470 O.co2     1 SUB1       -0.567
     24 H11        60.3374    3.8685  -30.1706 H         1 SUB1        0.060
     25 H21        58.2086    5.0351  -29.5348 H         1 SUB1        0.061
     26 H31        56.3725    3.7458  -28.4144 H         1 SUB1        0.060
     27 H41        56.6680    1.3321  -27.9007 H         1 SUB1        0.061
     28 H51        58.7690    0.1712  -28.5277 H         1 SUB1        0.060
     29 H71        61.6880    1.8700  -30.3195 H         1 SUB1        0.054
     30 H81        60.5663   -0.6345  -28.9963 H         1 SUB1        0.061
     31 H101       63.1982    1.2051  -31.0186 H         1 SUB1        0.060
     32 H111       65.3677    0.2771  -31.7413 H         1 SUB1        0.052
     33 H131       64.4497   -3.4854  -29.7771 H         1 SUB1        0.052
     34 H141       62.2476   -2.5144  -29.0170 H         1 SUB1        0.060
     35 H151       66.9567   -1.3013  -31.5376 H         1 SUB1        0.229
     36 H171       68.7376   -2.1489  -32.0804 H         1 SUB1        0.051
     37 H172       68.9254   -3.4707  -30.8712 H         1 SUB1        0.051
     38 H181       68.7276   -5.1096  -32.6678 H         1 SUB1        0.033
     39 H182       68.6148   -3.7628  -33.8587 H         1 SUB1        0.033
     40 H191       70.8039   -2.9442  -33.1216 H         1 SUB1        0.049
     41 H192       70.9173   -4.3187  -31.9628 H         1 SUB1        0.049
@<TRIPOS>BOND
     1    1    2 ar 
     2    1    6 ar 
     3    2    3 ar 
     4    3    4 ar 
     5    4    5 ar 
     6    5    6 ar 
     7    6    7 1  
     8    7    8 2  
     9    8    9 1  
    10    9   10 ar 
    11    9   14 ar 
    12   10   11 ar 
    13   11   12 ar 
    14   12   13 ar 
    15   12   15 1  
    16   13   14 ar 
    17   15   16 am 
    18   16   17 1  
    19   16   22 2  
    20   17   18 1  
    21   18   19 1  
    22   19   20 1  
    23   20   21 2  
    24   20   23 2  
    25    1   24 1  
    26    2   25 1  
    27    3   26 1  
    28    4   27 1  
    29    5   28 1  
    30    7   29 1  
    31    8   30 1  
    32   10   31 1  
    33   11   32 1  
    34   13   33 1  
    35   14   34 1  
    36   15   35 1  
    37   17   36 1  
    38   17   37 1  
    39   18   38 1  
    40   18   39 1  
    41   19   40 1  
    42   19   41 1  
@<TRIPOS>SUBSTRUCTURE
     1 SUB1        1 GROUP

