1fl3_ligand
  -I-interpret- 

 41 42  0  0  0  0  0  0  0  0999 V2000
   59.5400    3.3230  -29.6790 C   0  0  0  0  0
   58.3370    3.9800  -29.3220 C   0  0  0  0  0
   57.2970    3.2470  -28.6820 C   0  0  0  0  0
   57.4620    1.8800  -28.3950 C   0  0  0  0  0
   58.6460    1.2260  -28.7450 C   0  0  0  0  0
   59.6890    1.9480  -29.3870 C   0  0  0  0  0
   60.9550    1.2720  -29.7800 C   0  0  0  0  0
   61.2760   -0.0050  -29.5310 C   0  0  0  0  0
   62.5820   -0.5900  -29.9670 C   0  0  0  0  0
   63.4690    0.1920  -30.7440 C   0  0  0  0  0
   64.6930   -0.3390  -31.1580 C   0  0  0  0  0
   65.0730   -1.6670  -30.8320 C   0  0  0  0  0
   64.1800   -2.4700  -30.0440 C   0  0  0  0  0
   62.9280   -1.9170  -29.6130 C   0  0  0  0  0
   66.3590   -2.0810  -31.3510 N   0  0  0  0  0
   66.9390   -3.2280  -31.6390 C   0  0  0  0  0
   68.4550   -3.1800  -31.8220 C   0  0  0  0  0
   69.0110   -4.0680  -32.8790 C   0  0  0  0  0
   70.5010   -3.9830  -32.9240 C   0  0  0  0  0
   71.0470   -4.8510  -34.0070 C   0  0  0  0  0
   71.4070   -4.0790  -35.1020 O   0  5  0  0  0
   66.3740   -4.2990  -31.7320 O   0  0  0  0  0
   71.0830   -6.0660  -33.9470 O   0  0  0  0  0
   60.3374    3.8685  -30.1706 H   0  0  0  0  0
   58.2086    5.0351  -29.5348 H   0  0  0  0  0
   56.3725    3.7458  -28.4144 H   0  0  0  0  0
   56.6680    1.3321  -27.9007 H   0  0  0  0  0
   58.7690    0.1712  -28.5277 H   0  0  0  0  0
   61.6880    1.8700  -30.3195 H   0  0  0  0  0
   60.5663   -0.6345  -28.9963 H   0  0  0  0  0
   63.1982    1.2051  -31.0186 H   0  0  0  0  0
   65.3677    0.2771  -31.7413 H   0  0  0  0  0
   64.4497   -3.4854  -29.7771 H   0  0  0  0  0
   62.2476   -2.5144  -29.0170 H   0  0  0  0  0
   66.9567   -1.3013  -31.5376 H   0  0  0  0  0
   68.7376   -2.1489  -32.0804 H   0  0  0  0  0
   68.9254   -3.4707  -30.8712 H   0  0  0  0  0
   68.7276   -5.1096  -32.6678 H   0  0  0  0  0
   68.6148   -3.7628  -33.8587 H   0  0  0  0  0
   70.8039   -2.9442  -33.1216 H   0  0  0  0  0
   70.9173   -4.3187  -31.9628 H   0  0  0  0  0
  1  2  4  0  0  0
  1  6  4  0  0  0
  2  3  4  0  0  0
  3  4  4  0  0  0
  4  5  4  0  0  0
  5  6  4  0  0  0
  6  7  1  0  0  0
  7  8  2  0  0  0
  8  9  1  0  0  0
  9 10  4  0  0  0
  9 14  4  0  0  0
 10 11  4  0  0  0
 11 12  4  0  0  0
 12 13  4  0  0  0
 12 15  1  0  0  0
 13 14  4  0  0  0
 15 16  1  0  0  0
 16 17  1  0  0  0
 16 22  2  0  0  0
 17 18  1  0  0  0
 18 19  1  0  0  0
 19 20  1  0  0  0
 20 21  1  0  0  0
 20 23  2  0  0  0
  1 24  1  0  0  0
  2 25  1  0  0  0
  3 26  1  0  0  0
  4 27  1  0  0  0
  5 28  1  0  0  0
  7 29  1  0  0  0
  8 30  1  0  0  0
 10 31  1  0  0  0
 11 32  1  0  0  0
 13 33  1  0  0  0
 14 34  1  0  0  0
 15 35  1  0  0  0
 17 36  1  0  0  0
 17 37  1  0  0  0
 18 38  1  0  0  0
 18 39  1  0  0  0
 19 40  1  0  0  0
 19 41  1  0  0  0
M  END
$$$$
