### 
### Created by X-TOOL on Mon Oct 24 23:10:40 2005
### 

@<TRIPOS>MOLECULE
1n3i_ligand
   35    37     1     0     0
SMALL
GAST_HUCK


@<TRIPOS>ATOM
      1 O5'        54.7860   13.5760   44.0320 O.3       1 SUB1       -0.395
      2 C5'        54.9630   14.9140   44.4710 C.3       1 SUB1        0.051
      3 C4'        56.2460   15.6180   44.7340 C.3       1 SUB1        0.022
      4 C6'        57.0460   15.6340   43.5030 C.3       1 SUB1        0.008
      5 C3'        56.0710   17.0320   45.1720 C.3       1 SUB1        0.074
      6 O3'        56.9050   17.4660   46.2280 O.3       1 SUB1       -0.390
      7 C2'        56.2120   17.6320   43.8270 C.3       1 SUB1        0.027
      8 N1'        57.3550   17.0200   43.2100 N.3       1 SUB1       -0.294
      9 C10        57.5110   17.2290   41.7890 C.3       1 SUB1        0.016
     10 C9         56.6420   16.7970   40.6660 C.2       1 SUB1       -0.030
     11 C8         56.7440   15.6870   39.8370 C.2       1 SUB1        0.018
     12 N7         55.8070   15.5800   38.9250 N.pl3     1 SUB1       -0.290
     13 C5         54.9980   16.6890   39.1290 C.2       1 SUB1        0.135
     14 C6         53.7860   17.1310   38.4300 C.2       1 SUB1        0.241
     15 O6         53.2380   16.5700   37.4840 O.2       1 SUB1       -0.401
     16 N1         53.2170   18.3510   38.9360 N.am      1 SUB1       -0.207
     17 C2         53.7530   19.1040   40.0300 C.2       1 SUB1        0.115
     18 N3         54.9020   18.6860   40.6950 N.2       1 SUB1       -0.320
     19 C4         55.4900   17.4660   40.2070 C.2       1 SUB1        0.014
     20 H11        53.8579   13.3919   43.9473 H         1 SUB1        0.209
     21 H21        54.4650   15.5351   43.7119 H         1 SUB1        0.056
     22 H22        54.4189   14.9792   45.4248 H         1 SUB1        0.056
     23 H31        56.7876   15.0820   45.5273 H         1 SUB1        0.036
     24 H41        57.9811   15.0728   43.6466 H         1 SUB1        0.043
     25 H42        56.4738   15.2021   42.6687 H         1 SUB1        0.043
     26 H51        55.0403   17.1973   45.5187 H         1 SUB1        0.061
     27 H61        56.7139   18.3748   46.4279 H         1 SUB1        0.210
     28 H71        55.3163   17.4304   43.2212 H         1 SUB1        0.045
     29 H72        56.3749   18.7170   43.9061 H         1 SUB1        0.045
     30 H91        57.5601   18.3217   41.6728 H         1 SUB1        0.051
     31 H92        58.4867   16.7820   41.5480 H         1 SUB1        0.051
     32 H111       57.5456   14.9568   39.9371 H         1 SUB1        0.078
     33 H121       55.6967   14.8399   38.2172 H         1 SUB1        0.227
     34 H161       52.3899   18.6975   38.4934 H         1 SUB1        0.252
     35 H171       53.2535   20.0184   40.3467 H         1 SUB1        0.143
@<TRIPOS>BOND
     1    1    2 1  
     2    2    3 1  
     3    3    4 1  
     4    3    5 1  
     5    4    8 1  
     6    5    6 1  
     7    5    7 1  
     8    7    8 1  
     9    8    9 1  
    10    9   10 1  
    11   10   11 2  
    12   10   19 1  
    13   11   12 1  
    14   12   13 1  
    15   13   14 1  
    16   13   19 2  
    17   14   15 2  
    18   14   16 am 
    19   16   17 am 
    20   17   18 2  
    21   18   19 1  
    22    1   20 1  
    23    2   21 1  
    24    2   22 1  
    25    3   23 1  
    26    4   24 1  
    27    4   25 1  
    28    5   26 1  
    29    6   27 1  
    30    7   28 1  
    31    7   29 1  
    32    9   30 1  
    33    9   31 1  
    34   11   32 1  
    35   12   33 1  
    36   16   34 1  
    37   17   35 1  
@<TRIPOS>SUBSTRUCTURE
     1 SUB1        1 GROUP

