1n3i_ligand
  -I-interpret- 

 35 37  0  0  0  0  0  0  0  0999 V2000
   54.7860   13.5760   44.0320 O   0  0  0  0  0
   54.9630   14.9140   44.4710 C   0  0  0  0  0
   56.2460   15.6180   44.7340 C   0  0  0  0  0
   57.0460   15.6340   43.5030 C   0  0  0  0  0
   56.0710   17.0320   45.1720 C   0  0  0  0  0
   56.9050   17.4660   46.2280 O   0  0  0  0  0
   56.2120   17.6320   43.8270 C   0  0  0  0  0
   57.3550   17.0200   43.2100 N   0  0  0  0  0
   57.5110   17.2290   41.7890 C   0  0  0  0  0
   56.6420   16.7970   40.6660 C   0  0  0  0  0
   56.7440   15.6870   39.8370 C   0  0  0  0  0
   55.8070   15.5800   38.9250 N   0  0  0  0  0
   54.9980   16.6890   39.1290 C   0  0  0  0  0
   53.7860   17.1310   38.4300 C   0  0  0  0  0
   53.2380   16.5700   37.4840 O   0  0  0  0  0
   53.2170   18.3510   38.9360 N   0  0  0  0  0
   53.7530   19.1040   40.0300 C   0  0  0  0  0
   54.9020   18.6860   40.6950 N   0  0  0  0  0
   55.4900   17.4660   40.2070 C   0  0  0  0  0
   53.8579   13.3919   43.9473 H   0  0  0  0  0
   54.4650   15.5351   43.7119 H   0  0  0  0  0
   54.4189   14.9792   45.4248 H   0  0  0  0  0
   56.7876   15.0820   45.5273 H   0  0  0  0  0
   57.9811   15.0728   43.6466 H   0  0  0  0  0
   56.4738   15.2021   42.6687 H   0  0  0  0  0
   55.0403   17.1973   45.5187 H   0  0  0  0  0
   56.7139   18.3748   46.4279 H   0  0  0  0  0
   55.3163   17.4304   43.2212 H   0  0  0  0  0
   56.3749   18.7170   43.9061 H   0  0  0  0  0
   57.5601   18.3217   41.6728 H   0  0  0  0  0
   58.4867   16.7820   41.5480 H   0  0  0  0  0
   57.5456   14.9568   39.9371 H   0  0  0  0  0
   55.6967   14.8399   38.2172 H   0  0  0  0  0
   52.3899   18.6975   38.4934 H   0  0  0  0  0
   53.2535   20.0184   40.3467 H   0  0  0  0  0
  1  2  1  0  0  0
  2  3  1  0  0  0
  3  4  1  0  0  0
  3  5  1  0  0  0
  4  8  1  0  0  0
  5  6  1  0  0  0
  5  7  1  0  0  0
  7  8  1  0  0  0
  8  9  1  0  0  0
  9 10  1  0  0  0
 10 11  2  0  0  0
 10 19  1  0  0  0
 11 12  1  0  0  0
 12 13  1  0  0  0
 13 14  1  0  0  0
 13 19  2  0  0  0
 14 15  2  0  0  0
 14 16  1  0  0  0
 16 17  1  0  0  0
 17 18  2  0  0  0
 18 19  1  0  0  0
  1 20  1  0  0  0
  2 21  1  0  0  0
  2 22  1  0  0  0
  3 23  1  0  0  0
  4 24  1  0  0  0
  4 25  1  0  0  0
  5 26  1  0  0  0
  6 27  1  0  0  0
  7 28  1  0  0  0
  7 29  1  0  0  0
  9 30  1  0  0  0
  9 31  1  0  0  0
 11 32  1  0  0  0
 12 33  1  0  0  0
 16 34  1  0  0  0
 17 35  1  0  0  0
M  END
$$$$
