### 
### Created by X-TOOL on Sun Jun  3 11:20:11 2007
### 

@<TRIPOS>MOLECULE
2d3u_ligand
   40    42     1     0     0
SMALL
GAST_HUCK


@<TRIPOS>ATOM
      1 C1         12.9300   30.8710   73.5550 C.ar      1 SUB1       -0.014
      2 C2         12.9040   29.5940   72.9150 C.ar      1 SUB1        0.107
      3 C3         11.6750   28.8760   72.8760 C.ar      1 SUB1       -0.014
      4 C4         10.5040   29.4160   73.4550 C.ar      1 SUB1       -0.025
      5 C5         10.5200   30.6920   74.0920 C.ar      1 SUB1        0.040
      6 C6         11.7530   31.4110   74.1340 C.ar      1 SUB1       -0.025
      7 C7          6.8840   31.7970   75.1110 C.2       1 SUB1        0.193
      8 C8          7.7330   32.3920   76.0330 C.2       1 SUB1        0.187
      9 C9          9.1080   32.0610   75.7680 C.2       1 SUB1        0.038
     10 C10         9.2770   31.2340   74.6690 C.2       1 SUB1        0.104
     11 S11         7.7570   30.8740   73.9820 S.3       1 SUB1        0.070
     12 C12        14.0830   29.0400   72.3180 C.1       1 SUB1        0.110
     13 N13        15.0430   28.5810   71.8110 N.1       1 SUB1       -0.322
     14 C14         5.4020   31.9440   75.1070 C.2       1 SUB1        0.138
     15 O15         4.7680   31.2300   74.3130 O.2       1 SUB1       -0.542
     16 O16         4.8680   32.7870   75.8710 O.2       1 SUB1       -0.542
     17 N17         7.3010   33.2370   77.1370 N.am      1 SUB1       -0.140
     18 S18         8.2820   34.5020   77.6890 S.o2      1 SUB1        0.105
     19 C19         7.7750   36.4670   75.7110 C.ar      1 SUB1       -0.019
     20 C20         8.7330   35.6820   76.4270 C.ar      1 SUB1        0.121
     21 C21        10.1250   35.8300   76.1460 C.ar      1 SUB1       -0.041
     22 C22        10.5780   36.7400   75.1660 C.ar      1 SUB1       -0.067
     23 C23         9.6350   37.5250   74.4500 C.ar      1 SUB1       -0.068
     24 C24         8.2460   37.3870   74.7200 C.ar      1 SUB1       -0.059
     25 C25         6.2860   36.3670   75.9520 C.3       1 SUB1       -0.029
     26 O26         9.4810   33.8970   78.2520 O.2       1 SUB1       -0.140
     27 O27         7.4830   35.1830   78.6860 O.2       1 SUB1       -0.140
     28 H          13.8618   31.4349   73.5987 H         1 SUB1        0.075
     29 H          11.6367   27.8990   72.3943 H         1 SUB1        0.075
     30 H           9.5743   28.8484   73.4140 H         1 SUB1        0.075
     31 H          11.7903   32.3873   74.6172 H         1 SUB1        0.075
     32 H           9.9374   32.4259   76.3738 H         1 SUB1        0.066
     33 H           6.3993   33.0655   77.5820 H         1 SUB1        0.260
     34 H          10.8498   35.2307   76.6970 H         1 SUB1        0.062
     35 H          11.6438   36.8395   74.9603 H         1 SUB1        0.056
     36 H           9.9761   38.2325   73.6943 H         1 SUB1        0.060
     37 H           7.5287   37.9908   74.1641 H         1 SUB1        0.056
     38 H           5.9539   35.3488   75.7490 H         1 SUB1        0.039
     39 H           6.0693   36.6211   76.9896 H         1 SUB1        0.039
     40 H           5.7649   37.0592   75.2906 H         1 SUB1        0.039
@<TRIPOS>BOND
     1    1    2 ar 
     2    6    1 ar 
     3    3    2 ar 
     4    2   12 1  
     5    4    3 ar 
     6    5    4 ar 
     7    5    6 ar 
     8   10    5 1  
     9    8    7 2  
    10    7   11 1  
    11    7   14 1  
    12    9    8 1  
    13    8   17 1  
    14    9   10 2  
    15   10   11 1  
    16   12   13 3  
    17   14   15 2  
    18   14   16 2  
    19   17   18 1  
    20   18   20 1  
    21   18   26 2  
    22   18   27 2  
    23   20   19 ar 
    24   19   24 ar 
    25   19   25 1  
    26   20   21 ar 
    27   21   22 ar 
    28   22   23 ar 
    29   23   24 ar 
    30    1   28 1  
    31    3   29 1  
    32    4   30 1  
    33    6   31 1  
    34    9   32 1  
    35   17   33 1  
    36   21   34 1  
    37   22   35 1  
    38   23   36 1  
    39   24   37 1  
    40   25   38 1  
    41   25   39 1  
    42   25   40 1  
@<TRIPOS>SUBSTRUCTURE
     1 SUB1        1 GROUP

