### 
### Created by X-TOOL on Sun Jun  3 11:17:32 2007
### 

@<TRIPOS>MOLECULE
2bzz_ligand
   81    86     1     0     0
SMALL
GAST_HUCK


@<TRIPOS>ATOM
      1 PA         11.4810   13.6220    9.9930 P.3       1 SUB1        0.546
      2 O1A        11.2930   14.8900   10.6840 O.2       1 SUB1       -0.276
      3 O2A        10.5050   13.3540    8.8770 O.2       1 SUB1       -0.276
      4 O3A        12.9610   13.4700    9.3800 O.3       1 SUB1       -0.044
      5 PB         14.0530   14.5600    9.0850 P.3       1 SUB1        0.583
      6 O1B        14.8170   14.9430   10.2740 O.2       1 SUB1       -0.271
      7 O2B        13.3910   15.6640    8.3610 O.2       1 SUB1       -0.271
      8 O3B        14.9880   13.7080    8.1460 O.3       1 SUB1       -0.041
      9 PG         15.7740   12.4100    8.2010 P.3       1 SUB1        0.583
     10 O1G        14.7760   11.3780    7.8820 O.2       1 SUB1       -0.271
     11 O2G        16.2110   12.0650    9.5470 O.2       1 SUB1       -0.271
     12 O3G        16.8900   12.4620    7.1820 O.3       1 SUB1       -0.041
     13 PD         18.0110   13.3590    6.5860 P.3       1 SUB1        0.583
     14 O1D        17.9530   14.6660    7.1520 O.2       1 SUB1       -0.271
     15 O2D        19.2620   12.6370    6.9760 O.2       1 SUB1       -0.271
     16 O3D        18.0120   13.5890    5.1300 O.3       1 SUB1       -0.044
     17 PE         17.3780   13.7490    3.8130 P.3       1 SUB1        0.546
     18 O1E        17.8580   14.8780    3.0270 O.2       1 SUB1       -0.276
     19 O2E        17.0450   12.6020    2.8370 O.2       1 SUB1       -0.276
     20 AO5        11.3860   12.3570   10.8920 O.3       1 SUB1       -0.215
     21 AC5        12.0730   12.3370   12.2250 C.3       1 SUB1        0.116
     22 AC4        12.6920   10.9500   12.4750 C.3       1 SUB1        0.119
     23 AO4        11.4700   10.0510   12.5420 O.3       1 SUB1       -0.336
     24 AC3        13.3800   10.2210   11.2590 C.3       1 SUB1        0.115
     25 AO3        14.7740   10.6720   11.3040 O.3       1 SUB1       -0.386
     26 AC2        13.3800    8.7910   11.8510 C.3       1 SUB1        0.139
     27 AO2        14.3710    8.4730   12.8050 O.3       1 SUB1       -0.384
     28 AC1        11.9390    8.7920   12.4580 C.3       1 SUB1        0.201
     29 AN9        10.9090    7.9330   11.6740 N.pl3     1 SUB1       -0.192
     30 AC8        10.7300    7.6440   10.2340 C.2       1 SUB1        0.112
     31 AN7         9.5750    6.9720   10.0840 N.2       1 SUB1       -0.296
     32 AC5         8.8690    6.9220   11.3580 C.ar      1 SUB1        0.105
     33 AC6         7.6930    6.4330   11.6680 C.ar      1 SUB1        0.130
     34 AN6         6.7780    5.7990   10.9100 N.pl3     1 SUB1       -0.315
     35 AN1         7.3460    6.5620   12.9920 N.ar      1 SUB1       -0.270
     36 AC2         8.1320    7.1490   13.9390 C.ar      1 SUB1        0.053
     37 AN3         9.3560    7.6650   13.6260 N.ar      1 SUB1       -0.271
     38 AC4         9.7120    7.4570   12.2730 C.ar      1 SUB1        0.161
     39 BO5        15.6750   14.2570    3.9910 O.3       1 SUB1       -0.215
     40 BC5        15.4860   15.5340    4.5460 C.3       1 SUB1        0.116
     41 BC4        14.1430   15.7290    4.6840 C.3       1 SUB1        0.119
     42 BO4        13.6370   16.0730    3.3490 O.3       1 SUB1       -0.336
     43 BC3        13.2950   14.4760    5.3440 C.3       1 SUB1        0.115
     44 BO3        12.0460   14.9720    5.9930 O.3       1 SUB1       -0.386
     45 BC2        12.4620   14.1120    3.9280 C.3       1 SUB1        0.139
     46 BO2        11.3500   13.4230    4.2810 O.3       1 SUB1       -0.384
     47 BC1        12.3930   15.2560    3.1830 C.3       1 SUB1        0.201
     48 BN9        12.4650   14.9620    1.6400 N.pl3     1 SUB1       -0.192
     49 BC8        13.3120   14.1870    0.9190 C.2       1 SUB1        0.112
     50 BN7        13.0970   14.1770   -0.3660 N.2       1 SUB1       -0.296
     51 BC5        12.0040   15.0160   -0.6110 C.ar      1 SUB1        0.105
     52 BC6        11.3760   15.3570   -1.7860 C.ar      1 SUB1        0.130
     53 BN6        11.7110   14.8930   -2.9740 N.pl3     1 SUB1       -0.315
     54 BN1        10.2830   16.3390   -1.6260 N.ar      1 SUB1       -0.270
     55 BC2         9.9910   16.8210   -0.4730 C.ar      1 SUB1        0.053
     56 BN3        10.6140   16.4040    0.7030 N.ar      1 SUB1       -0.271
     57 BC4        11.6250   15.5570    0.6600 C.ar      1 SUB1        0.161
     58 H          11.3454   12.5522   13.0076 H         1 SUB1        0.065
     59 H          12.8616   13.0894   12.2342 H         1 SUB1        0.065
     60 H          13.3994   11.0910   13.2922 H         1 SUB1        0.065
     61 H          12.9489   10.3498   10.2662 H         1 SUB1        0.065
     62 H          15.1647   10.4172   12.1431 H         1 SUB1        0.210
     63 H          13.6192    8.0293   11.1089 H         1 SUB1        0.068
     64 H          15.2396    8.5823   12.4111 H         1 SUB1        0.210
     65 H          12.0456    8.3390   13.4437 H         1 SUB1        0.100
     66 H          11.4148    7.9265    9.4344 H         1 SUB1        0.135
     67 H           6.9606    5.6359    9.9198 H         1 SUB1        0.182
     68 H           5.9024    5.4819   11.3261 H         1 SUB1        0.182
     69 H           7.7753    7.2073   14.9673 H         1 SUB1        0.100
     70 H          15.9165   16.2976    3.8983 H         1 SUB1        0.065
     71 H          15.9820   15.6051    5.5140 H         1 SUB1        0.065
     72 H          13.9924   16.5258    5.4123 H         1 SUB1        0.065
     73 H          13.9125   13.8155    5.9527 H         1 SUB1        0.065
     74 H          12.2731   15.5947    6.6874 H         1 SUB1        0.210
     75 H          12.9359   13.4257    3.2262 H         1 SUB1        0.068
     76 H          10.8097   13.9649    4.8607 H         1 SUB1        0.210
     77 H          11.4683   15.7331    3.5076 H         1 SUB1        0.100
     78 H          14.1153   13.6133    1.3812 H         1 SUB1        0.135
     79 H          12.4843   14.2341   -3.0647 H         1 SUB1        0.182
     80 H          11.1968   15.1930   -3.8023 H         1 SUB1        0.182
     81 H           9.2217   17.5907   -0.4100 H         1 SUB1        0.100
@<TRIPOS>BOND
     1    1    2 2  
     2    1    3 2  
     3    1    4 1  
     4    1   20 1  
     5    4    5 1  
     6    5    6 2  
     7    5    7 2  
     8    5    8 1  
     9    8    9 1  
    10    9   10 2  
    11    9   11 2  
    12    9   12 1  
    13   12   13 1  
    14   13   14 2  
    15   13   15 2  
    16   13   16 1  
    17   16   17 1  
    18   17   18 2  
    19   17   19 2  
    20   17   39 1  
    21   20   21 1  
    22   21   22 1  
    23   22   23 1  
    24   22   24 1  
    25   23   28 1  
    26   24   25 1  
    27   24   26 1  
    28   26   27 1  
    29   26   28 1  
    30   28   29 1  
    31   29   30 1  
    32   29   38 1  
    33   30   31 2  
    34   31   32 1  
    35   32   33 ar 
    36   32   38 ar 
    37   33   34 1  
    38   33   35 ar 
    39   35   36 ar 
    40   36   37 ar 
    41   37   38 ar 
    42   39   40 1  
    43   40   41 1  
    44   41   42 1  
    45   41   43 1  
    46   42   47 1  
    47   43   44 1  
    48   43   45 1  
    49   45   46 1  
    50   45   47 1  
    51   47   48 1  
    52   48   49 1  
    53   48   57 1  
    54   49   50 2  
    55   50   51 1  
    56   51   52 ar 
    57   51   57 ar 
    58   52   53 1  
    59   52   54 ar 
    60   54   55 ar 
    61   55   56 ar 
    62   56   57 ar 
    63   21   58 1  
    64   21   59 1  
    65   22   60 1  
    66   24   61 1  
    67   25   62 1  
    68   26   63 1  
    69   27   64 1  
    70   28   65 1  
    71   30   66 1  
    72   34   67 1  
    73   34   68 1  
    74   36   69 1  
    75   40   70 1  
    76   40   71 1  
    77   41   72 1  
    78   43   73 1  
    79   44   74 1  
    80   45   75 1  
    81   46   76 1  
    82   47   77 1  
    83   49   78 1  
    84   53   79 1  
    85   53   80 1  
    86   55   81 1  
@<TRIPOS>SUBSTRUCTURE
     1 SUB1        1 GROUP

