2bzz_ligand
  -I-interpret- 

 81 86  0  0  0  0  0  0  0  0999 V2000
   11.4810   13.6220    9.9930 P   0  0  0  0  0
   11.2930   14.8900   10.6840 O   0  0  0  0  0
   10.5050   13.3540    8.8770 O   0  5  0  0  0
   12.9610   13.4700    9.3800 O   0  0  0  0  0
   14.0530   14.5600    9.0850 P   0  0  0  0  0
   14.8170   14.9430   10.2740 O   0  0  0  0  0
   13.3910   15.6640    8.3610 O   0  5  0  0  0
   14.9880   13.7080    8.1460 O   0  0  0  0  0
   15.7740   12.4100    8.2010 P   0  0  0  0  0
   14.7760   11.3780    7.8820 O   0  5  0  0  0
   16.2110   12.0650    9.5470 O   0  0  0  0  0
   16.8900   12.4620    7.1820 O   0  0  0  0  0
   18.0110   13.3590    6.5860 P   0  0  0  0  0
   17.9530   14.6660    7.1520 O   0  0  0  0  0
   19.2620   12.6370    6.9760 O   0  5  0  0  0
   18.0120   13.5890    5.1300 O   0  0  0  0  0
   17.3780   13.7490    3.8130 P   0  0  0  0  0
   17.8580   14.8780    3.0270 O   0  0  0  0  0
   17.0450   12.6020    2.8370 O   0  5  0  0  0
   11.3860   12.3570   10.8920 O   0  0  0  0  0
   12.0730   12.3370   12.2250 C   0  0  0  0  0
   12.6920   10.9500   12.4750 C   0  0  0  0  0
   11.4700   10.0510   12.5420 O   0  0  0  0  0
   13.3800   10.2210   11.2590 C   0  0  0  0  0
   14.7740   10.6720   11.3040 O   0  0  0  0  0
   13.3800    8.7910   11.8510 C   0  0  0  0  0
   14.3710    8.4730   12.8050 O   0  0  0  0  0
   11.9390    8.7920   12.4580 C   0  0  0  0  0
   10.9090    7.9330   11.6740 N   0  0  0  0  0
   10.7300    7.6440   10.2340 C   0  0  0  0  0
    9.5750    6.9720   10.0840 N   0  0  0  0  0
    8.8690    6.9220   11.3580 C   0  0  0  0  0
    7.6930    6.4330   11.6680 C   0  0  0  0  0
    6.7780    5.7990   10.9100 N   0  0  0  0  0
    7.3460    6.5620   12.9920 N   0  0  0  0  0
    8.1320    7.1490   13.9390 C   0  0  0  0  0
    9.3560    7.6650   13.6260 N   0  0  0  0  0
    9.7120    7.4570   12.2730 C   0  0  0  0  0
   15.6750   14.2570    3.9910 O   0  0  0  0  0
   15.4860   15.5340    4.5460 C   0  0  0  0  0
   14.1430   15.7290    4.6840 C   0  0  0  0  0
   13.6370   16.0730    3.3490 O   0  0  0  0  0
   13.2950   14.4760    5.3440 C   0  0  0  0  0
   12.0460   14.9720    5.9930 O   0  0  0  0  0
   12.4620   14.1120    3.9280 C   0  0  0  0  0
   11.3500   13.4230    4.2810 O   0  0  0  0  0
   12.3930   15.2560    3.1830 C   0  0  0  0  0
   12.4650   14.9620    1.6400 N   0  0  0  0  0
   13.3120   14.1870    0.9190 C   0  0  0  0  0
   13.0970   14.1770   -0.3660 N   0  0  0  0  0
   12.0040   15.0160   -0.6110 C   0  0  0  0  0
   11.3760   15.3570   -1.7860 C   0  0  0  0  0
   11.7110   14.8930   -2.9740 N   0  0  0  0  0
   10.2830   16.3390   -1.6260 N   0  0  0  0  0
    9.9910   16.8210   -0.4730 C   0  0  0  0  0
   10.6140   16.4040    0.7030 N   0  0  0  0  0
   11.6250   15.5570    0.6600 C   0  0  0  0  0
   11.3454   12.5522   13.0076 H   0  0  0  0  0
   12.8616   13.0894   12.2342 H   0  0  0  0  0
   13.3994   11.0910   13.2922 H   0  0  0  0  0
   12.9489   10.3498   10.2662 H   0  0  0  0  0
   15.1647   10.4172   12.1431 H   0  0  0  0  0
   13.6192    8.0293   11.1089 H   0  0  0  0  0
   15.2396    8.5823   12.4111 H   0  0  0  0  0
   12.0456    8.3390   13.4437 H   0  0  0  0  0
   11.4148    7.9265    9.4344 H   0  0  0  0  0
    6.9606    5.6359    9.9198 H   0  0  0  0  0
    5.9024    5.4819   11.3261 H   0  0  0  0  0
    7.7753    7.2073   14.9673 H   0  0  0  0  0
   15.9165   16.2976    3.8983 H   0  0  0  0  0
   15.9820   15.6051    5.5140 H   0  0  0  0  0
   13.9924   16.5258    5.4123 H   0  0  0  0  0
   13.9125   13.8155    5.9527 H   0  0  0  0  0
   12.2731   15.5947    6.6874 H   0  0  0  0  0
   12.9359   13.4257    3.2262 H   0  0  0  0  0
   10.8097   13.9649    4.8607 H   0  0  0  0  0
   11.4683   15.7331    3.5076 H   0  0  0  0  0
   14.1153   13.6133    1.3812 H   0  0  0  0  0
   12.4843   14.2341   -3.0647 H   0  0  0  0  0
   11.1968   15.1930   -3.8023 H   0  0  0  0  0
    9.2217   17.5907   -0.4100 H   0  0  0  0  0
  1  2  2  0  0  0
  1  3  1  0  0  0
  1  4  1  0  0  0
  1 20  1  0  0  0
  4  5  1  0  0  0
  5  6  2  0  0  0
  5  7  1  0  0  0
  5  8  1  0  0  0
  8  9  1  0  0  0
  9 10  1  0  0  0
  9 11  2  0  0  0
  9 12  1  0  0  0
 12 13  1  0  0  0
 13 14  2  0  0  0
 13 15  1  0  0  0
 13 16  1  0  0  0
 16 17  1  0  0  0
 17 18  2  0  0  0
 17 19  1  0  0  0
 17 39  1  0  0  0
 20 21  1  0  0  0
 21 22  1  0  0  0
 22 23  1  0  0  0
 22 24  1  0  0  0
 23 28  1  0  0  0
 24 25  1  0  0  0
 24 26  1  0  0  0
 26 27  1  0  0  0
 26 28  1  0  0  0
 28 29  1  0  0  0
 29 30  1  0  0  0
 29 38  1  0  0  0
 30 31  2  0  0  0
 31 32  1  0  0  0
 32 33  4  0  0  0
 32 38  4  0  0  0
 33 34  1  0  0  0
 33 35  4  0  0  0
 35 36  4  0  0  0
 36 37  4  0  0  0
 37 38  4  0  0  0
 39 40  1  0  0  0
 40 41  1  0  0  0
 41 42  1  0  0  0
 41 43  1  0  0  0
 42 47  1  0  0  0
 43 44  1  0  0  0
 43 45  1  0  0  0
 45 46  1  0  0  0
 45 47  1  0  0  0
 47 48  1  0  0  0
 48 49  1  0  0  0
 48 57  1  0  0  0
 49 50  2  0  0  0
 50 51  1  0  0  0
 51 52  4  0  0  0
 51 57  4  0  0  0
 52 53  1  0  0  0
 52 54  4  0  0  0
 54 55  4  0  0  0
 55 56  4  0  0  0
 56 57  4  0  0  0
 21 58  1  0  0  0
 21 59  1  0  0  0
 22 60  1  0  0  0
 24 61  1  0  0  0
 25 62  1  0  0  0
 26 63  1  0  0  0
 27 64  1  0  0  0
 28 65  1  0  0  0
 30 66  1  0  0  0
 34 67  1  0  0  0
 34 68  1  0  0  0
 36 69  1  0  0  0
 40 70  1  0  0  0
 40 71  1  0  0  0
 41 72  1  0  0  0
 43 73  1  0  0  0
 44 74  1  0  0  0
 45 75  1  0  0  0
 46 76  1  0  0  0
 47 77  1  0  0  0
 49 78  1  0  0  0
 53 79  1  0  0  0
 53 80  1  0  0  0
 55 81  1  0  0  0
M  END
$$$$
