### 
### Created by X-TOOL on Mon Oct 24 21:55:25 2005
### 

@<TRIPOS>MOLECULE
1hms_ligand
   53    52     1     0     0
SMALL
GAST_HUCK


@<TRIPOS>ATOM
      1 CA         20.0020   33.2660   53.5770 C.3       1 SUB1       -0.014
      2 C          19.0300   33.3380   52.4920 C.2       1 SUB1        0.028
      3 O          19.0140   34.4160   51.9100 O.co2     1 SUB1       -0.567
      4 OXT        18.3210   32.3340   52.4110 O.co2     1 SUB1       -0.567
      5 C3         20.6000   34.5030   54.1250 C.3       1 SUB1       -0.041
      6 C4         21.8030   34.2750   55.0600 C.3       1 SUB1       -0.050
      7 C5         22.3410   35.6020   55.5610 C.3       1 SUB1       -0.053
      8 C6         23.5690   35.5340   56.4000 C.3       1 SUB1       -0.052
      9 C7         23.5370   34.5310   57.5140 C.3       1 SUB1       -0.046
     10 C8         22.6930   35.0320   58.6870 C.3       1 SUB1       -0.036
     11 C9         22.6420   34.0520   59.8040 C.2       1 SUB1       -0.099
     12 C10        21.7210   34.1380   60.8600 C.2       1 SUB1       -0.099
     13 C11        20.7780   35.2360   61.0590 C.3       1 SUB1       -0.036
     14 C12        19.3360   34.9930   60.9030 C.3       1 SUB1       -0.046
     15 C13        18.9230   34.6100   59.4960 C.3       1 SUB1       -0.052
     16 C14        17.5060   34.0840   59.4840 C.3       1 SUB1       -0.053
     17 C15        16.7310   34.5080   58.2780 C.3       1 SUB1       -0.053
     18 C16        17.3270   35.6680   57.5660 C.3       1 SUB1       -0.053
     19 C17        16.3040   36.4260   56.7320 C.3       1 SUB1       -0.056
     20 C18        16.7280   37.8920   56.6480 C.3       1 SUB1       -0.065
     21 H11        19.5033   32.7574   54.4152 H         1 SUB1        0.048
     22 H12        20.8349   32.6455   53.2148 H         1 SUB1        0.048
     23 H51        19.8230   35.0383   54.6903 H         1 SUB1        0.030
     24 H52        20.9342   35.1252   53.2817 H         1 SUB1        0.030
     25 H61        22.5955   33.7471   54.5092 H         1 SUB1        0.027
     26 H62        21.4846   33.6654   55.9185 H         1 SUB1        0.027
     27 H71        21.5515   36.0812   56.1585 H         1 SUB1        0.026
     28 H72        22.5670   36.2262   54.6839 H         1 SUB1        0.026
     29 H81        23.7315   36.5274   56.8435 H         1 SUB1        0.027
     30 H82        24.4146   35.2831   55.7428 H         1 SUB1        0.027
     31 H91        24.5643   34.3499   57.8631 H         1 SUB1        0.029
     32 H92        23.1064   33.5912   57.1381 H         1 SUB1        0.029
     33 H101       21.6685   35.2175   58.3320 H         1 SUB1        0.039
     34 H102       23.1275   35.9712   59.0599 H         1 SUB1        0.039
     35 H111       23.3535   33.2276   59.8029 H         1 SUB1        0.045
     36 H121       21.7085   33.3255   61.5850 H         1 SUB1        0.045
     37 H131       21.0487   36.0236   60.3404 H         1 SUB1        0.039
     38 H132       20.9304   35.6062   62.0835 H         1 SUB1        0.039
     39 H141       18.7984   35.9109   61.1832 H         1 SUB1        0.029
     40 H142       19.0474   34.1772   61.5821 H         1 SUB1        0.029
     41 H151       19.6015   33.8304   59.1193 H         1 SUB1        0.027
     42 H152       18.9856   35.4957   58.8467 H         1 SUB1        0.027
     43 H161       16.9878   34.4546   60.3807 H         1 SUB1        0.026
     44 H162       17.5408   32.9848   59.5086 H         1 SUB1        0.026
     45 H171       15.7139   34.7804   58.5962 H         1 SUB1        0.026
     46 H172       16.6819   33.6593   57.5800 H         1 SUB1        0.026
     47 H181       18.1237   35.3029   56.9012 H         1 SUB1        0.026
     48 H182       17.7561   36.3560   58.3093 H         1 SUB1        0.026
     49 H191       15.3139   36.3539   57.2057 H         1 SUB1        0.026
     50 H192       16.2589   35.9955   55.7208 H         1 SUB1        0.026
     51 H201       15.9960   38.4515   56.0471 H         1 SUB1        0.023
     52 H202       17.7191   37.9606   56.1757 H         1 SUB1        0.023
     53 H203       16.7740   38.3190   57.6607 H         1 SUB1        0.023
@<TRIPOS>BOND
     1    1    5 1  
     2    1    2 1  
     3    2    4 2  
     4    2    3 2  
     5    5    6 1  
     6    6    7 1  
     7    7    8 1  
     8    8    9 1  
     9    9   10 1  
    10   10   11 1  
    11   11   12 2  
    12   12   13 1  
    13   13   14 1  
    14   14   15 1  
    15   15   16 1  
    16   16   17 1  
    17   17   18 1  
    18   18   19 1  
    19   19   20 1  
    20    1   21 1  
    21    1   22 1  
    22    5   23 1  
    23    5   24 1  
    24    6   25 1  
    25    6   26 1  
    26    7   27 1  
    27    7   28 1  
    28    8   29 1  
    29    8   30 1  
    30    9   31 1  
    31    9   32 1  
    32   10   33 1  
    33   10   34 1  
    34   11   35 1  
    35   12   36 1  
    36   13   37 1  
    37   13   38 1  
    38   14   39 1  
    39   14   40 1  
    40   15   41 1  
    41   15   42 1  
    42   16   43 1  
    43   16   44 1  
    44   17   45 1  
    45   17   46 1  
    46   18   47 1  
    47   18   48 1  
    48   19   49 1  
    49   19   50 1  
    50   20   51 1  
    51   20   52 1  
    52   20   53 1  
@<TRIPOS>SUBSTRUCTURE
     1 SUB1        1 GROUP

