1mj7_ligand
  -I-interpret- 

 60 61  0  0  0  0  0  0  0  0999 V2000
   62.1250    3.3260   32.6680 C   0  0  0  0  0
   63.3270    3.0910   32.0030 C   0  0  0  0  0
   63.9290    4.0960   31.2270 C   0  0  0  0  0
   63.3160    5.3420   31.1220 C   0  0  0  0  0
   62.1130    5.5830   31.7880 C   0  0  0  0  0
   61.5300    4.5850   32.5510 C   0  0  0  0  0
   61.4650    2.2350   33.4780 C   0  0  0  0  0
   59.9720    2.3880   33.5790 C   0  0  0  0  0
   59.3120    1.3160   34.3140 N   0  0  0  0  0
   57.9910    1.2230   34.4530 C   0  0  0  0  0
   57.2100    2.0320   33.9470 O   0  0  0  0  0
   57.4620    0.0400   35.2430 C   0  0  0  0  0
   58.1620   -0.0880   36.4750 O   0  0  0  0  0
   59.2410   -1.2450   36.6890 P   0  0  0  0  0
   60.6000   -0.6890   36.4220 O   0  5  0  0  0
   58.7910   -2.4570   35.9540 O   0  0  0  0  0
   59.1850   -1.5780   38.0930 C   0  0  0  0  0
   60.3240   -2.5300   38.5080 C   0  0  0  0  0
   60.0360   -3.3360   39.7550 C   0  0  0  0  0
   59.5560   -4.6410   39.6590 C   0  0  0  0  0
   59.2680   -5.3870   40.8100 C   0  0  0  0  0
   59.4590   -4.8300   42.0730 C   0  0  0  0  0
   59.9430   -3.5210   42.1830 C   0  0  0  0  0
   60.2290   -2.7820   41.0250 C   0  0  0  0  0
   59.2070   -0.3850   38.9390 N   0  0  0  0  0
   58.2390   -0.1580   39.8190 C   0  0  0  0  0
   57.2910   -0.9230   39.9590 O   0  0  0  0  0
   58.3360    1.1190   40.6500 C   0  0  0  0  0
   57.4440    1.0850   41.9000 C   0  0  0  0  0
   57.8850   -0.0510   42.8130 C   0  0  0  0  0
   57.0660   -0.1850   44.0910 C   0  0  0  0  0
   57.1480   -1.2650   44.7120 O   0  5  0  0  0
   56.3590    0.7630   44.4900 O   0  0  0  0  0
   63.8035    2.1208   32.0854 H   0  0  0  0  0
   64.8640    3.9027   30.7137 H   0  0  0  0  0
   63.7720    6.1231   30.5244 H   0  0  0  0  0
   61.6346    6.5524   31.7078 H   0  0  0  0  0
   60.5970    4.7837   33.0658 H   0  0  0  0  0
   61.6742    1.2645   33.0045 H   0  0  0  0  0
   61.8764    2.2511   34.4980 H   0  0  0  0  0
   59.7490    3.3337   34.0945 H   0  0  0  0  0
   59.5504    2.4061   32.5632 H   0  0  0  0  0
   59.8825    0.6120   34.7369 H   0  0  0  0  0
   56.3939    0.1892   35.4594 H   0  0  0  0  0
   57.6015   -0.8834   34.6618 H   0  0  0  0  0
   58.2279   -2.0875   38.2782 H   0  0  0  0  0
   60.5065   -3.2388   37.6869 H   0  0  0  0  0
   61.2290   -1.9340   38.6971 H   0  0  0  0  0
   59.4035   -5.0846   38.6817 H   0  0  0  0  0
   58.8954   -6.4007   40.7174 H   0  0  0  0  0
   59.2345   -5.4059   42.9635 H   0  0  0  0  0
   60.0965   -3.0792   43.1609 H   0  0  0  0  0
   60.6042   -1.7691   41.1156 H   0  0  0  0  0
   59.9600    0.2674   38.8536 H   0  0  0  0  0
   59.3771    1.2545   40.9780 H   0  0  0  0  0
   58.0234    1.9732   40.0316 H   0  0  0  0  0
   57.5332    2.0352   42.4469 H   0  0  0  0  0
   56.3973    0.9184   41.6059 H   0  0  0  0  0
   57.7987   -0.9985   42.2609 H   0  0  0  0  0
   58.9319    0.1193   43.1043 H   0  0  0  0  0
  1  2  4  0  0  0
  1  6  4  0  0  0
  1  7  1  0  0  0
  2  3  4  0  0  0
  3  4  4  0  0  0
  4  5  4  0  0  0
  5  6  4  0  0  0
  7  8  1  0  0  0
  8  9  1  0  0  0
  9 10  1  0  0  0
 10 11  2  0  0  0
 10 12  1  0  0  0
 12 13  1  0  0  0
 13 14  1  0  0  0
 14 15  1  0  0  0
 14 16  2  0  0  0
 14 17  1  0  0  0
 17 18  1  0  0  0
 17 25  1  0  0  0
 18 19  1  0  0  0
 19 20  4  0  0  0
 19 24  4  0  0  0
 20 21  4  0  0  0
 21 22  4  0  0  0
 22 23  4  0  0  0
 23 24  4  0  0  0
 25 26  1  0  0  0
 26 27  2  0  0  0
 26 28  1  0  0  0
 28 29  1  0  0  0
 29 30  1  0  0  0
 30 31  1  0  0  0
 31 32  1  0  0  0
 31 33  2  0  0  0
  2 34  1  0  0  0
  3 35  1  0  0  0
  4 36  1  0  0  0
  5 37  1  0  0  0
  6 38  1  0  0  0
  7 39  1  0  0  0
  7 40  1  0  0  0
  8 41  1  0  0  0
  8 42  1  0  0  0
  9 43  1  0  0  0
 12 44  1  0  0  0
 12 45  1  0  0  0
 17 46  1  0  0  0
 18 47  1  0  0  0
 18 48  1  0  0  0
 20 49  1  0  0  0
 21 50  1  0  0  0
 22 51  1  0  0  0
 23 52  1  0  0  0
 24 53  1  0  0  0
 25 54  1  0  0  0
 28 55  1  0  0  0
 28 56  1  0  0  0
 29 57  1  0  0  0
 29 58  1  0  0  0
 30 59  1  0  0  0
 30 60  1  0  0  0
M  END
$$$$
