### 
### Created by X-TOOL on Mon Oct 24 22:00:48 2005
### 

@<TRIPOS>MOLECULE
1utm_ligand
   21    21     1     0     0
SMALL
GAST_HUCK


@<TRIPOS>ATOM
      1 C1'        93.9350   77.8830  -16.7310 C.ar      1 SUB1       -0.038
      2 C6'        94.8120   78.2330  -17.7540 C.ar      1 SUB1       -0.060
      3 C5'        94.6460   77.7290  -19.0430 C.ar      1 SUB1       -0.069
      4 C4'        93.5850   76.8640  -19.3160 C.ar      1 SUB1       -0.069
      5 C3'        92.7040   76.5110  -18.3000 C.ar      1 SUB1       -0.069
      6 C2'        92.8830   77.0210  -17.0150 C.ar      1 SUB1       -0.060
      7 C2         94.1270   78.4200  -15.3370 C.3       1 SUB1        0.021
      8 C1         94.6600   79.8400  -15.2930 C.3       1 SUB1       -0.026
      9 N          94.8930   80.2770  -13.8970 N.4       1 SUB1        0.220
     10 H21        95.6352   78.9067  -17.5453 H         1 SUB1        0.056
     11 H31        95.3377   78.0075  -19.8298 H         1 SUB1        0.060
     12 H41        93.4485   76.4690  -20.3162 H         1 SUB1        0.056
     13 H51        91.8785   75.8396  -18.5069 H         1 SUB1        0.060
     14 H61        92.1927   76.7415  -16.2274 H         1 SUB1        0.056
     15 H71        94.8375   77.7669  -14.8091 H         1 SUB1        0.048
     16 H72        93.1559   78.3985  -14.8208 H         1 SUB1        0.048
     17 H81        93.9284   80.5135  -15.7633 H         1 SUB1        0.084
     18 H82        95.6092   79.8852  -15.8471 H         1 SUB1        0.084
     19 H91        95.2460   81.2212  -13.8950 H         1 SUB1        0.200
     20 H92        95.5659   79.6658  -13.4614 H         1 SUB1        0.200
     21 H93        94.0257   80.2415  -13.3846 H         1 SUB1        0.200
@<TRIPOS>BOND
     1    1    2 ar 
     2    1    6 ar 
     3    1    7 1  
     4    2    3 ar 
     5    3    4 ar 
     6    4    5 ar 
     7    5    6 ar 
     8    7    8 1  
     9    8    9 1  
    10    2   10 1  
    11    3   11 1  
    12    4   12 1  
    13    5   13 1  
    14    6   14 1  
    15    7   15 1  
    16    7   16 1  
    17    8   17 1  
    18    8   18 1  
    19    9   19 1  
    20    9   20 1  
    21    9   21 1  
@<TRIPOS>SUBSTRUCTURE
     1 SUB1        1 GROUP

