1utm_ligand
  -I-interpret- 

 21 21  0  0  0  0  0  0  0  0999 V2000
   93.9350   77.8830  -16.7310 C   0  0  0  0  0
   94.8120   78.2330  -17.7540 C   0  0  0  0  0
   94.6460   77.7290  -19.0430 C   0  0  0  0  0
   93.5850   76.8640  -19.3160 C   0  0  0  0  0
   92.7040   76.5110  -18.3000 C   0  0  0  0  0
   92.8830   77.0210  -17.0150 C   0  0  0  0  0
   94.1270   78.4200  -15.3370 C   0  0  0  0  0
   94.6600   79.8400  -15.2930 C   0  0  0  0  0
   94.8930   80.2770  -13.8970 N   0  3  0  0  0
   95.6352   78.9067  -17.5453 H   0  0  0  0  0
   95.3377   78.0075  -19.8298 H   0  0  0  0  0
   93.4485   76.4690  -20.3162 H   0  0  0  0  0
   91.8785   75.8396  -18.5069 H   0  0  0  0  0
   92.1927   76.7415  -16.2274 H   0  0  0  0  0
   94.8375   77.7669  -14.8091 H   0  0  0  0  0
   93.1559   78.3985  -14.8208 H   0  0  0  0  0
   93.9284   80.5135  -15.7633 H   0  0  0  0  0
   95.6092   79.8852  -15.8471 H   0  0  0  0  0
   95.2460   81.2212  -13.8950 H   0  0  0  0  0
   95.5659   79.6658  -13.4614 H   0  0  0  0  0
   94.0257   80.2415  -13.3846 H   0  0  0  0  0
  1  2  4  0  0  0
  1  6  4  0  0  0
  1  7  1  0  0  0
  2  3  4  0  0  0
  3  4  4  0  0  0
  4  5  4  0  0  0
  5  6  4  0  0  0
  7  8  1  0  0  0
  8  9  1  0  0  0
  2 10  1  0  0  0
  3 11  1  0  0  0
  4 12  1  0  0  0
  5 13  1  0  0  0
  6 14  1  0  0  0
  7 15  1  0  0  0
  7 16  1  0  0  0
  8 17  1  0  0  0
  8 18  1  0  0  0
  9 19  1  0  0  0
  9 20  1  0  0  0
  9 21  1  0  0  0
M  END
$$$$
