1tnj_ligand
  -I-interpret- 

 21 21  0  0  0  0  0  0  0  0999 V2000
   28.5560   16.4858   17.6029 H   0  0  0  0  0
   28.2052   15.0032   19.5513 H   0  0  0  0  0
   28.9489   12.6460   19.4609 H   0  0  0  0  0
   30.0428   11.7709   17.4169 H   0  0  0  0  0
   30.3866   13.2547   15.4705 H   0  0  0  0  0
   30.8241   15.9657   15.0932 H   0  0  0  0  0
   29.3367   16.8814   15.5126 H   0  0  0  0  0
   28.5615   16.2926   13.5391 H   0  0  0  0  0
   28.3734   14.6411   14.2202 H   0  0  0  0  0
   29.4980   14.9640   16.4240 C   0  0  0  0  0
   28.8830   15.4530   17.5640 C   0  0  0  0  0
   28.6850   14.6200   18.6580 C   0  0  0  0  0
   29.1020   13.2960   18.6070 C   0  0  0  0  0
   29.7170   12.8040   17.4580 C   0  0  0  0  0
   29.9120   13.6370   16.3670 C   0  0  0  0  0
   29.7390   15.8900   15.2570 C   0  0  0  0  0
   29.0950   15.4330   13.9710 C   0  0  0  0  0
   29.9900   14.9120   12.9550 N   0  3  0  0  0
   30.7840   15.5790   12.9340 H   0  0  0  0  0
   29.5970   14.9040   12.0000 H   0  0  0  0  0
   30.3960   13.9960   13.2180 H   0  0  0  0  0
 11  1  1  0  0  0
 12  2  1  0  0  0
 13  3  1  0  0  0
 14  4  1  0  0  0
 15  5  1  0  0  0
 16  6  1  0  0  0
 16  7  1  0  0  0
 17  8  1  0  0  0
 17  9  1  0  0  0
 10 11  4  0  0  0
 10 15  4  0  0  0
 16 10  1  0  0  0
 11 12  4  0  0  0
 12 13  4  0  0  0
 14 13  4  0  0  0
 15 14  4  0  0  0
 16 17  1  0  0  0
 17 18  1  0  0  0
 18 19  1  0  0  0
 18 20  1  0  0  0
 18 21  1  0  0  0
M  END
$$$$
