### 
### Created by X-TOOL on Tue Oct 25 02:03:13 2005
### 

@<TRIPOS>MOLECULE
1wkm_ligand
   20    19     1     0     0
SMALL
GAST_HUCK


@<TRIPOS>ATOM
      1 N          49.1320   61.3430   -0.2750 N.4       1 SUB1        0.238
      2 CA         50.5770   60.9600   -0.1400 C.3       1 SUB1        0.016
      3 C          51.0840   61.7160    1.0610 C.2       1 SUB1        0.076
      4 O          52.2540   61.9680    1.1200 O.co2     1 SUB1       -0.561
      5 CB         51.2890   61.4160   -1.4330 C.3       1 SUB1        0.011
      6 CG         51.0510   60.3850   -2.5360 C.3       1 SUB1        0.001
      7 SD         51.8850   60.7200   -4.0750 S.3       1 SUB1       -0.164
      8 CE         53.3540   59.7990   -3.8570 C.3       1 SUB1       -0.018
      9 OXT        50.3620   62.0760    1.9650 O.co2     1 SUB1       -0.561
     10 H11        48.7308   60.8666   -1.0675 H         1 SUB1        0.202
     11 H12        49.0596   62.3393   -0.4100 H         1 SUB1        0.202
     12 H13        48.6351   61.0803    0.5618 H         1 SUB1        0.202
     13 H21        50.6974   59.8760    0.0028 H         1 SUB1        0.107
     14 H51        52.3687   61.5083   -1.2441 H         1 SUB1        0.036
     15 H52        50.8874   62.3902   -1.7488 H         1 SUB1        0.036
     16 H61        49.9702   60.3430   -2.7361 H         1 SUB1        0.038
     17 H62        51.3941   59.4068   -2.1682 H         1 SUB1        0.038
     18 H81        53.9906   59.9080   -4.7474 H         1 SUB1        0.034
     19 H82        53.1034   58.7376   -3.7132 H         1 SUB1        0.034
     20 H83        53.8927   60.1716   -2.9733 H         1 SUB1        0.034
@<TRIPOS>BOND
     1    1    2 1  
     2    2    3 1  
     3    2    5 1  
     4    3    4 2  
     5    3    9 2  
     6    5    6 1  
     7    6    7 1  
     8    7    8 1  
     9    1   10 1  
    10    1   11 1  
    11    1   12 1  
    12    2   13 1  
    13    5   14 1  
    14    5   15 1  
    15    6   16 1  
    16    6   17 1  
    17    8   18 1  
    18    8   19 1  
    19    8   20 1  
@<TRIPOS>SUBSTRUCTURE
     1 SUB1        1 GROUP

