1wkm_ligand
  -I-interpret- 

 20 19  0  0  0  0  0  0  0  0999 V2000
   49.1320   61.3430   -0.2750 N   0  3  0  0  0
   50.5770   60.9600   -0.1400 C   0  0  0  0  0
   51.0840   61.7160    1.0610 C   0  0  0  0  0
   52.2540   61.9680    1.1200 O   0  0  0  0  0
   51.2890   61.4160   -1.4330 C   0  0  0  0  0
   51.0510   60.3850   -2.5360 C   0  0  0  0  0
   51.8850   60.7200   -4.0750 S   0  0  0  0  0
   53.3540   59.7990   -3.8570 C   0  0  0  0  0
   50.3620   62.0760    1.9650 O   0  5  0  0  0
   48.7308   60.8666   -1.0675 H   0  0  0  0  0
   49.0596   62.3393   -0.4100 H   0  0  0  0  0
   48.6351   61.0803    0.5618 H   0  0  0  0  0
   50.6974   59.8760    0.0028 H   0  0  0  0  0
   52.3687   61.5083   -1.2441 H   0  0  0  0  0
   50.8874   62.3902   -1.7488 H   0  0  0  0  0
   49.9702   60.3430   -2.7361 H   0  0  0  0  0
   51.3941   59.4068   -2.1682 H   0  0  0  0  0
   53.9906   59.9080   -4.7474 H   0  0  0  0  0
   53.1034   58.7376   -3.7132 H   0  0  0  0  0
   53.8927   60.1716   -2.9733 H   0  0  0  0  0
  1  2  1  0  0  0
  2  3  1  0  0  0
  2  5  1  0  0  0
  3  4  2  0  0  0
  3  9  1  0  0  0
  5  6  1  0  0  0
  6  7  1  0  0  0
  7  8  1  0  0  0
  1 10  1  0  0  0
  1 11  1  0  0  0
  1 12  1  0  0  0
  2 13  1  0  0  0
  5 14  1  0  0  0
  5 15  1  0  0  0
  6 16  1  0  0  0
  6 17  1  0  0  0
  8 18  1  0  0  0
  8 19  1  0  0  0
  8 20  1  0  0  0
M  END
$$$$
