### 
### Created by X-TOOL on Mon Oct 24 23:39:19 2005
### 

@<TRIPOS>MOLECULE
4tmk_ligand
   80    84     1     0     0
SMALL
GAST_HUCK


@<TRIPOS>ATOM
      1 BN1        24.9590  100.3390   17.5190 N.am      1 SUB1       -0.174
      2 BC6        24.8200  100.5920   16.2120 C.2       1 SUB1        0.052
      3 BC2        25.8720   99.4790   18.0180 C.2       1 SUB1        0.326
      4 BO2        25.8980   99.0240   19.1840 O.2       1 SUB1       -0.384
      5 BN3        26.7660   99.0180   17.0820 N.am      1 SUB1       -0.186
      6 BC4        26.7120   99.2170   15.7220 C.2       1 SUB1        0.193
      7 BO4        27.5640   98.7680   14.9420 O.2       1 SUB1       -0.408
      8 BC5        25.6450  100.0640   15.2890 C.2       1 SUB1        0.023
      9 BC7        25.5680  100.3480   13.7860 C.3       1 SUB1       -0.044
     10 BC5'       20.5680  101.8140   17.6160 C.3       1 SUB1        0.089
     11 BC4'       21.7500  101.4560   18.5270 C.3       1 SUB1        0.114
     12 BO4'       22.6480  100.5280   17.8530 O.3       1 SUB1       -0.340
     13 BC1'       23.9750  100.8540   18.4130 C.3       1 SUB1        0.176
     14 BC2'       23.8640  102.3980   18.3600 C.3       1 SUB1        0.031
     15 BC3'       22.5330  102.6930   18.9940 C.3       1 SUB1        0.089
     16 BO3'       22.5950  102.7490   20.4140 O.3       1 SUB1       -0.389
     17 PA         20.0850  103.5050   15.6980 P.3       1 SUB1        0.297
     18 O1A        19.3550  102.8400   14.6470 O.co2     1 SUB1       -0.533
     19 O2A        20.9000  104.6950   15.2870 O.co2     1 SUB1       -0.533
     20 BO5'       21.0740  102.5150   16.5630 O.3       1 SUB1       -0.319
     21 O3A        19.1540  104.2080   16.5070 O.3       1 SUB1       -0.252
     22 PB         18.3640  105.6400   16.3660 P.3       1 SUB1        0.321
     23 O1B        17.1210  105.6320   17.2100 O.co2     1 SUB1       -0.532
     24 O2B        18.2280  105.9100   14.9010 O.co2     1 SUB1       -0.532
     25 O3B        19.4750  106.6760   16.8330 O.3       1 SUB1       -0.255
     26 PC         20.5100  107.5760   16.1640 P.3       1 SUB1        0.315
     27 O1C        21.8170  107.0370   16.5720 O.co2     1 SUB1       -0.531
     28 O2C        20.2100  107.6840   14.7490 O.co2     1 SUB1       -0.531
     29 O3C        20.2170  109.0820   16.8040 O.3       1 SUB1       -0.255
     30 PD         20.4980  110.7190   16.4250 P.3       1 SUB1        0.321
     31 O1D        21.4790  110.8560   15.3070 O.co2     1 SUB1       -0.532
     32 O2D        20.6120  111.3780   17.7140 O.co2     1 SUB1       -0.532
     33 O3D        19.1450  111.1330   15.6500 O.3       1 SUB1       -0.252
     34 PE         18.3080  112.5120   15.3460 P.3       1 SUB1        0.297
     35 O1E        19.2070  113.4960   14.6760 O.co2     1 SUB1       -0.533
     36 O2E        17.1230  112.0340   14.6310 O.co2     1 SUB1       -0.533
     37 AO5'       17.9710  112.9110   16.8110 O.3       1 SUB1       -0.319
     38 AC5'       17.4610  111.9960   17.8090 C.3       1 SUB1        0.089
     39 AC4'       16.5070  112.6760   18.7370 C.3       1 SUB1        0.116
     40 AO4'       17.2260  113.6180   19.4960 O.3       1 SUB1       -0.336
     41 AC1'       16.7340  114.9770   19.3180 C.3       1 SUB1        0.202
     42 AC2'       15.9120  114.9230   18.0330 C.3       1 SUB1        0.139
     43 AO2'       14.9480  115.9620   18.1540 O.3       1 SUB1       -0.384
     44 AC3'       15.3160  113.4800   18.0500 C.3       1 SUB1        0.115
     45 AO3'       14.2150  113.3420   19.0000 O.3       1 SUB1       -0.386
     46 AN9        17.8350  115.9460   19.1470 N.pl3     1 SUB1       -0.191
     47 AC4        17.9810  117.1490   19.8270 C.2       1 SUB1        0.163
     48 AN3        17.1840  117.6150   20.8400 N.2       1 SUB1       -0.266
     49 AC2        17.5710  118.8280   21.2650 C.2       1 SUB1        0.053
     50 AN1        18.6340  119.5490   20.8190 N.2       1 SUB1       -0.274
     51 AC6        19.4770  119.0270   19.9030 C.2       1 SUB1        0.125
     52 AN6        20.4960  119.8010   19.5510 N.pl3     1 SUB1       -0.313
     53 AC5        19.1520  117.7310   19.3750 C.2       1 SUB1        0.105
     54 AN7        19.6700  116.9560   18.3620 N.2       1 SUB1       -0.301
     55 AC8        18.8520  115.9360   18.2390 C.2       1 SUB1        0.110
     56 H21        24.0132  101.2463   15.8849 H         1 SUB1        0.101
     57 H51        27.5368   98.4815   17.4255 H         1 SUB1        0.226
     58 H91        24.7112  101.0066   13.5807 H         1 SUB1        0.030
     59 H92        25.4420   99.4015   13.2399 H         1 SUB1        0.030
     60 H93        26.4955  100.8400   13.4578 H         1 SUB1        0.030
     61 H101       19.8409  102.4301   18.1653 H         1 SUB1        0.062
     62 H102       20.0759  100.8976   17.2581 H         1 SUB1        0.062
     63 H111       21.3451  100.9570   19.4198 H         1 SUB1        0.065
     64 H131       24.1336  100.4738   19.4329 H         1 SUB1        0.096
     65 H141       23.8888  102.7556   17.3201 H         1 SUB1        0.034
     66 H142       24.6799  102.8677   18.9289 H         1 SUB1        0.034
     67 H151       22.0983  103.6274   18.6094 H         1 SUB1        0.062
     68 H161       23.0827  103.5203   20.6784 H         1 SUB1        0.210
     69 H381       18.3039  111.5966   18.3921 H         1 SUB1        0.062
     70 H382       16.9404  111.1693   17.3036 H         1 SUB1        0.062
     71 H391       16.0737  111.9116   19.3987 H         1 SUB1        0.065
     72 H411       16.1104  115.2752   20.1737 H         1 SUB1        0.100
     73 H421       16.5259  115.0779   17.1335 H         1 SUB1        0.068
     74 H431       14.4813  115.8653   18.9758 H         1 SUB1        0.210
     75 H441       15.0429  113.1228   17.0461 H         1 SUB1        0.065
     76 H451       13.5187  113.9443   18.7657 H         1 SUB1        0.210
     77 H491       16.9696  119.2831   22.0506 H         1 SUB1        0.108
     78 H521       21.1798  119.4679   18.8565 H         1 SUB1        0.182
     79 H522       20.6030  120.7348   19.9723 H         1 SUB1        0.182
     80 H551       18.9740  115.1588   17.4860 H         1 SUB1        0.131
@<TRIPOS>BOND
     1    1   13 1  
     2    1    3 am 
     3    1    2 am 
     4    2    8 2  
     5    8    9 1  
     6    8    6 1  
     7    6    7 2  
     8    6    5 am 
     9    5    3 am 
    10    3    4 2  
    11   13   14 1  
    12   13   12 1  
    13   12   11 1  
    14   11   15 1  
    15   11   10 1  
    16   10   20 1  
    17   20   17 1  
    18   17   21 1  
    19   17   19 2  
    20   17   18 2  
    21   21   22 1  
    22   22   25 1  
    23   22   24 2  
    24   22   23 2  
    25   25   26 1  
    26   26   29 1  
    27   26   28 2  
    28   26   27 2  
    29   29   30 1  
    30   30   33 1  
    31   30   32 2  
    32   30   31 2  
    33   33   34 1  
    34   34   37 1  
    35   34   36 2  
    36   34   35 2  
    37   37   38 1  
    38   38   39 1  
    39   39   44 1  
    40   39   40 1  
    41   40   41 1  
    42   41   46 1  
    43   41   42 1  
    44   42   44 1  
    45   42   43 1  
    46   44   45 1  
    47   46   55 1  
    48   46   47 1  
    49   47   53 2  
    50   47   48 1  
    51   48   49 2  
    52   49   50 1  
    53   50   51 2  
    54   51   53 1  
    55   51   52 1  
    56   53   54 1  
    57   54   55 2  
    58   15   16 1  
    59   15   14 1  
    60    2   56 1  
    61    5   57 1  
    62    9   58 1  
    63    9   59 1  
    64    9   60 1  
    65   10   61 1  
    66   10   62 1  
    67   11   63 1  
    68   13   64 1  
    69   14   65 1  
    70   14   66 1  
    71   15   67 1  
    72   16   68 1  
    73   38   69 1  
    74   38   70 1  
    75   39   71 1  
    76   41   72 1  
    77   42   73 1  
    78   43   74 1  
    79   44   75 1  
    80   45   76 1  
    81   49   77 1  
    82   52   78 1  
    83   52   79 1  
    84   55   80 1  
@<TRIPOS>SUBSTRUCTURE
     1 SUB1        1 GROUP

