### 
### Created by X-TOOL on Tue Oct 25 02:06:55 2005
### 

@<TRIPOS>MOLECULE
1fkw_ligand
   30    32     1     0     0
SMALL
GAST_HUCK


@<TRIPOS>ATOM
      1 N1          1.4170   20.5820   39.0430 N.2       1 SUB1       -0.279
      2 C2          2.4140   20.2810   39.8730 C.2       1 SUB1        0.072
      3 N3          3.5980   19.8370   39.4450 N.2       1 SUB1       -0.248
      4 C4          3.8150   19.6690   38.1140 C.2       1 SUB1        0.174
      5 C5          2.8430   19.9510   37.2150 C.2       1 SUB1        0.086
      6 C6          1.5720   20.4330   37.6710 C.2       1 SUB1        0.029
      7 N7          3.3330   19.6990   35.9880 N.2       1 SUB1       -0.296
      8 C8          4.5840   19.2630   36.1240 C.2       1 SUB1        0.114
      9 N9          4.8960   19.2380   37.4140 N.pl3     1 SUB1       -0.185
     10 C1'         6.1190   18.7400   37.9560 C.3       1 SUB1        0.203
     11 C2'         6.5240   17.5220   37.1330 C.3       1 SUB1        0.139
     12 O2'         6.7250   16.4000   37.9960 O.3       1 SUB1       -0.384
     13 C3'         7.7910   17.8350   36.2810 C.3       1 SUB1        0.115
     14 O3'         8.7170   16.7430   36.3000 O.3       1 SUB1       -0.386
     15 C4'         8.2370   19.0170   37.2670 C.3       1 SUB1        0.114
     16 O4'         7.1410   19.6880   37.7680 O.3       1 SUB1       -0.336
     17 C5'         9.2070   20.0290   36.5950 C.3       1 SUB1        0.073
     18 O5'         8.6900   20.5750   35.3590 O.3       1 SUB1       -0.392
     19 H21         2.2571   20.4019   40.9438 H         1 SUB1        0.113
     20 H61         0.7680   20.6705   36.9759 H         1 SUB1        0.099
     21 H81         5.2447   18.9735   35.3082 H         1 SUB1        0.135
     22 H101        6.0014   18.4886   39.0204 H         1 SUB1        0.100
     23 H111        5.7021   17.2801   36.4431 H         1 SUB1        0.068
     24 H121        6.9299   15.6331   37.4740 H         1 SUB1        0.210
     25 H131        7.5837   18.1539   35.2489 H         1 SUB1        0.065
     26 H141        8.7716   16.3909   37.1806 H         1 SUB1        0.210
     27 H151        8.7688   18.5561   38.1125 H         1 SUB1        0.065
     28 H171       10.1559   19.5153   36.3810 H         1 SUB1        0.058
     29 H172        9.3885   20.8578   37.2950 H         1 SUB1        0.058
     30 H181        9.3215   21.1841   34.9946 H         1 SUB1        0.209
@<TRIPOS>BOND
     1    1    6 2  
     2    1    2 1  
     3    2    3 2  
     4    3    4 1  
     5    4    9 1  
     6    4    5 2  
     7    5    7 1  
     8    5    6 1  
     9    7    8 2  
    10    8    9 1  
    11    9   10 1  
    12   10   16 1  
    13   10   11 1  
    14   11   13 1  
    15   11   12 1  
    16   13   15 1  
    17   13   14 1  
    18   15   17 1  
    19   15   16 1  
    20   17   18 1  
    21    2   19 1  
    22    6   20 1  
    23    8   21 1  
    24   10   22 1  
    25   11   23 1  
    26   12   24 1  
    27   13   25 1  
    28   14   26 1  
    29   15   27 1  
    30   17   28 1  
    31   17   29 1  
    32   18   30 1  
@<TRIPOS>SUBSTRUCTURE
     1 SUB1        1 GROUP

