### 
### Created by X-TOOL on Sun Jun  3 11:16:35 2007
### 

@<TRIPOS>MOLECULE
2afw_ligand
   22    22     1     0     0
SMALL
GAST_HUCK


@<TRIPOS>ATOM
      1 C         -10.6340    3.7040   22.2280 C.2       1 SUB1        0.173
      2 O          -9.4450    3.2680   22.3360 O.2       1 SUB1       -0.397
      3 CT        -10.9250    5.0500   21.5860 C.3       1 SUB1        0.026
      4 N         -11.7100    3.0280   22.6420 N.am      1 SUB1       -0.286
      5 CA        -13.0590    3.5540   22.5200 C.3       1 SUB1        0.037
      6 CB        -13.9840    2.5390   21.8030 C.3       1 SUB1       -0.006
      7 CG        -15.4400    2.8980   21.8790 C.2       1 SUB1       -0.005
      8 CD2       -16.0610    4.0820   22.0860 C.2       1 SUB1        0.029
      9 ND1       -16.4430    1.9670   21.7190 N.2       1 SUB1       -0.325
     10 CE1       -17.6210    2.5610   21.8050 C.2       1 SUB1        0.091
     11 NE2       -17.4180    3.8480   22.0270 N.pl3     1 SUB1       -0.275
     12 H         -10.4190    5.8357   22.1470 H         1 SUB1        0.047
     13 H         -10.5641    5.0461   20.5575 H         1 SUB1        0.047
     14 H         -11.9999    5.2304   21.5946 H         1 SUB1        0.047
     15 H         -11.5791    2.1068   23.0600 H         1 SUB1        0.185
     16 H         -13.0258    4.4729   21.9347 H         1 SUB1        0.054
     17 H         -13.4533    3.7438   23.5183 H         1 SUB1        0.054
     18 H         -13.8580    1.5754   22.2967 H         1 SUB1        0.039
     19 H         -13.7039    2.5278   20.7497 H         1 SUB1        0.039
     20 H         -15.5780    5.0424   22.2660 H         1 SUB1        0.073
     21 H         -18.5914    2.0738   21.7094 H         1 SUB1        0.120
     22 H         -18.1468    4.5531   22.1368 H         1 SUB1        0.236
@<TRIPOS>BOND
     1    1    2 2  
     2    1    3 1  
     3    1    4 am 
     4    4    5 1  
     5    5    6 1  
     6    6    7 1  
     7    7    8 2  
     8    7    9 1  
     9    8   11 1  
    10    9   10 2  
    11   10   11 1  
    12    3   12 1  
    13    3   13 1  
    14    3   14 1  
    15    4   15 1  
    16    5   16 1  
    17    5   17 1  
    18    6   18 1  
    19    6   19 1  
    20    8   20 1  
    21   10   21 1  
    22   11   22 1  
@<TRIPOS>SUBSTRUCTURE
     1 SUB1        1 GROUP

