2afw_ligand
  -I-interpret- 

 22 22  0  0  0  0  0  0  0  0999 V2000
  -10.6340    3.7040   22.2280 C   0  0  0  0  0
   -9.4450    3.2680   22.3360 O   0  0  0  0  0
  -10.9250    5.0500   21.5860 C   0  0  0  0  0
  -11.7100    3.0280   22.6420 N   0  0  0  0  0
  -13.0590    3.5540   22.5200 C   0  0  0  0  0
  -13.9840    2.5390   21.8030 C   0  0  0  0  0
  -15.4400    2.8980   21.8790 C   0  0  0  0  0
  -16.0610    4.0820   22.0860 C   0  0  0  0  0
  -16.4430    1.9670   21.7190 N   0  0  0  0  0
  -17.6210    2.5610   21.8050 C   0  0  0  0  0
  -17.4180    3.8480   22.0270 N   0  0  0  0  0
  -10.4190    5.8357   22.1470 H   0  0  0  0  0
  -10.5641    5.0461   20.5575 H   0  0  0  0  0
  -11.9999    5.2304   21.5946 H   0  0  0  0  0
  -11.5791    2.1068   23.0600 H   0  0  0  0  0
  -13.0258    4.4729   21.9347 H   0  0  0  0  0
  -13.4533    3.7438   23.5183 H   0  0  0  0  0
  -13.8580    1.5754   22.2967 H   0  0  0  0  0
  -13.7039    2.5278   20.7497 H   0  0  0  0  0
  -15.5780    5.0424   22.2660 H   0  0  0  0  0
  -18.5914    2.0738   21.7094 H   0  0  0  0  0
  -18.1468    4.5531   22.1368 H   0  0  0  0  0
  1  2  2  0  0  0
  1  3  1  0  0  0
  1  4  1  0  0  0
  4  5  1  0  0  0
  5  6  1  0  0  0
  6  7  1  0  0  0
  7  8  2  0  0  0
  7  9  1  0  0  0
  8 11  1  0  0  0
  9 10  2  0  0  0
 10 11  1  0  0  0
  3 12  1  0  0  0
  3 13  1  0  0  0
  3 14  1  0  0  0
  4 15  1  0  0  0
  5 16  1  0  0  0
  5 17  1  0  0  0
  6 18  1  0  0  0
  6 19  1  0  0  0
  8 20  1  0  0  0
 10 21  1  0  0  0
 11 22  1  0  0  0
M  END
$$$$
