1zky_ligand
  -I-interpret- 

 45 47  0  0  0  0  0  0  0  0999 V2000
  -26.0470    4.0070   -3.4670 C   0  0  0  0  0
  -25.9500    3.7330   -4.9630 C   0  0  0  0  0
  -24.5310    3.3860   -5.4420 C   0  0  0  0  0
  -24.7690    2.5870   -6.6580 C   0  0  0  0  0
  -24.0250    1.2960   -6.8980 C   0  0  0  0  0
  -25.6340    3.1660   -7.5610 C   0  0  0  0  0
  -26.3610    4.4990   -7.2660 C   0  0  0  0  0
  -27.7940    4.3370   -7.6850 C   0  0  0  0  0
  -26.3770    4.9160   -5.8000 C   0  0  0  0  0
  -27.7620    5.4200   -5.4320 C   0  0  0  0  0
  -27.7170    6.2800   -4.3080 O   0  0  0  0  0
  -25.4120    6.0800   -5.5940 C   0  0  0  0  0
  -24.0830    5.7310   -5.2640 O   0  0  0  0  0
  -23.8110    4.6270   -6.0400 C   0  0  0  0  0
  -22.3590    4.3690   -6.4810 C   0  0  0  0  0
  -22.0420    4.2720   -7.8330 C   0  0  0  0  0
  -20.7420    4.0300   -8.2250 C   0  0  0  0  0
  -19.7490    3.8700   -7.2730 C   0  0  0  0  0
  -18.4820    3.6280   -7.6360 O   0  0  0  0  0
  -20.0620    3.9720   -5.9330 C   0  0  0  0  0
  -21.3570    4.2110   -5.5410 C   0  0  0  0  0
  -25.4034    4.8485   -3.2106 H   0  0  0  0  0
  -27.0788    4.2451   -3.2087 H   0  0  0  0  0
  -25.7279    3.1226   -2.9155 H   0  0  0  0  0
  -26.6166    2.8811   -5.0971 H   0  0  0  0  0
  -23.9637    2.9457   -4.6220 H   0  0  0  0  0
  -24.7409    0.4910   -7.0638 H   0  0  0  0  0
  -23.3873    1.4033   -7.7755 H   0  0  0  0  0
  -23.4113    1.0646   -6.0274 H   0  0  0  0  0
  -25.8117    2.6683   -8.5143 H   0  0  0  0  0
  -25.8139    5.2688   -7.8102 H   0  0  0  0  0
  -28.2671    3.5722   -7.0691 H   0  0  0  0  0
  -28.3180    5.2841   -7.5566 H   0  0  0  0  0
  -27.8334    4.0376   -8.7323 H   0  0  0  0  0
  -28.3886    4.5625   -5.1869 H   0  0  0  0  0
  -28.1638    5.9772   -6.2783 H   0  0  0  0  0
  -28.6048    6.5808   -4.1009 H   0  0  0  0  0
  -25.7973    6.6516   -4.7497 H   0  0  0  0  0
  -25.3625    6.6090   -6.5457 H   0  0  0  0  0
  -24.2282    4.8692   -7.0175 H   0  0  0  0  0
  -22.8235    4.3876   -8.5840 H   0  0  0  0  0
  -20.4960    3.9646   -9.2849 H   0  0  0  0  0
  -17.9355    3.5462   -6.8510 H   0  0  0  0  0
  -19.2790    3.8626   -5.1827 H   0  0  0  0  0
  -21.5967    4.2767   -4.4797 H   0  0  0  0  0
  1  2  1  0  0  0
  2  3  1  0  0  0
  2  9  1  0  0  0
  3  4  1  0  0  0
  3 14  1  0  0  0
  4  5  1  0  0  0
  4  6  2  0  0  0
  6  7  1  0  0  0
  7  8  1  0  0  0
  7  9  1  0  0  0
  9 10  1  0  0  0
  9 12  1  0  0  0
 10 11  1  0  0  0
 12 13  1  0  0  0
 13 14  1  0  0  0
 14 15  1  0  0  0
 15 16  4  0  0  0
 15 21  4  0  0  0
 16 17  4  0  0  0
 17 18  4  0  0  0
 18 19  1  0  0  0
 18 20  4  0  0  0
 20 21  4  0  0  0
  1 22  1  0  0  0
  1 23  1  0  0  0
  1 24  1  0  0  0
  2 25  1  0  0  0
  3 26  1  0  0  0
  5 27  1  0  0  0
  5 28  1  0  0  0
  5 29  1  0  0  0
  6 30  1  0  0  0
  7 31  1  0  0  0
  8 32  1  0  0  0
  8 33  1  0  0  0
  8 34  1  0  0  0
 10 35  1  0  0  0
 10 36  1  0  0  0
 11 37  1  0  0  0
 12 38  1  0  0  0
 12 39  1  0  0  0
 14 40  1  0  0  0
 16 41  1  0  0  0
 17 42  1  0  0  0
 19 43  1  0  0  0
 20 44  1  0  0  0
 21 45  1  0  0  0
M  END
$$$$
