### 
### Created by X-TOOL on Sun Jun  3 11:49:22 2007
### 

@<TRIPOS>MOLECULE
1zky_ligand
   45    47     1     0     0
SMALL
GAST_HUCK


@<TRIPOS>ATOM
      1 CAN       -26.0470    4.0070   -3.4670 C.3       1 SUB1       -0.059
      2 CAK       -25.9500    3.7330   -4.9630 C.3       1 SUB1       -0.018
      3 CAJ       -24.5310    3.3860   -5.4420 C.3       1 SUB1        0.021
      4 CAO       -24.7690    2.5870   -6.6580 C.2       1 SUB1       -0.076
      5 CAR       -24.0250    1.2960   -6.8980 C.3       1 SUB1       -0.040
      6 CAQ       -25.6340    3.1660   -7.5610 C.2       1 SUB1       -0.105
      7 CAP       -26.3610    4.4990   -7.2660 C.3       1 SUB1       -0.028
      8 CAS       -27.7940    4.3370   -7.6850 C.3       1 SUB1       -0.058
      9 CAL       -26.3770    4.9160   -5.8000 C.3       1 SUB1        0.028
     10 CAT       -27.7620    5.4200   -5.4320 C.3       1 SUB1        0.054
     11 OAU       -27.7170    6.2800   -4.3080 O.3       1 SUB1       -0.394
     12 CAM       -25.4120    6.0800   -5.5940 C.3       1 SUB1        0.060
     13 OAH       -24.0830    5.7310   -5.2640 O.3       1 SUB1       -0.363
     14 CAI       -23.8110    4.6270   -6.0400 C.3       1 SUB1        0.099
     15 CAD       -22.3590    4.3690   -6.4810 C.ar      1 SUB1       -0.023
     16 CAC       -22.0420    4.2720   -7.8330 C.ar      1 SUB1       -0.066
     17 CAB       -20.7420    4.0300   -8.2250 C.ar      1 SUB1       -0.040
     18 CAA       -19.7490    3.8700   -7.2730 C.ar      1 SUB1        0.080
     19 OAG       -18.4820    3.6280   -7.6360 O.3       1 SUB1       -0.338
     20 CAF       -20.0620    3.9720   -5.9330 C.ar      1 SUB1       -0.040
     21 CAE       -21.3570    4.2110   -5.5410 C.ar      1 SUB1       -0.066
     22 H         -25.4034    4.8485   -3.2106 H         1 SUB1        0.023
     23 H         -27.0788    4.2451   -3.2087 H         1 SUB1        0.023
     24 H         -25.7279    3.1226   -2.9155 H         1 SUB1        0.023
     25 H         -26.6166    2.8811   -5.0971 H         1 SUB1        0.033
     26 H         -23.9637    2.9457   -4.6220 H         1 SUB1        0.049
     27 H         -24.7409    0.4910   -7.0638 H         1 SUB1        0.038
     28 H         -23.3873    1.4033   -7.7755 H         1 SUB1        0.038
     29 H         -23.4113    1.0646   -6.0274 H         1 SUB1        0.038
     30 H         -25.8117    2.6683   -8.5143 H         1 SUB1        0.024
     31 H         -25.8139    5.2688   -7.8102 H         1 SUB1        0.038
     32 H         -28.2671    3.5722   -7.0691 H         1 SUB1        0.025
     33 H         -28.3180    5.2841   -7.5566 H         1 SUB1        0.025
     34 H         -27.8334    4.0376   -8.7323 H         1 SUB1        0.025
     35 H         -28.3886    4.5625   -5.1869 H         1 SUB1        0.056
     36 H         -28.1638    5.9772   -6.2783 H         1 SUB1        0.056
     37 H         -28.6048    6.5808   -4.1009 H         1 SUB1        0.209
     38 H         -25.7973    6.6516   -4.7497 H         1 SUB1        0.057
     39 H         -25.3625    6.6090   -6.5457 H         1 SUB1        0.057
     40 H         -24.2282    4.8692   -7.0175 H         1 SUB1        0.076
     41 H         -22.8235    4.3876   -8.5840 H         1 SUB1        0.053
     42 H         -20.4960    3.9646   -9.2849 H         1 SUB1        0.052
     43 H         -17.9355    3.5462   -6.8510 H         1 SUB1        0.246
     44 H         -19.2790    3.8626   -5.1827 H         1 SUB1        0.052
     45 H         -21.5967    4.2767   -4.4797 H         1 SUB1        0.053
@<TRIPOS>BOND
     1    1    2 1  
     2    2    3 1  
     3    2    9 1  
     4    3    4 1  
     5    3   14 1  
     6    4    5 1  
     7    4    6 2  
     8    6    7 1  
     9    7    8 1  
    10    7    9 1  
    11    9   10 1  
    12    9   12 1  
    13   10   11 1  
    14   12   13 1  
    15   13   14 1  
    16   14   15 1  
    17   15   16 ar 
    18   15   21 ar 
    19   16   17 ar 
    20   17   18 ar 
    21   18   19 1  
    22   18   20 ar 
    23   20   21 ar 
    24    1   22 1  
    25    1   23 1  
    26    1   24 1  
    27    2   25 1  
    28    3   26 1  
    29    5   27 1  
    30    5   28 1  
    31    5   29 1  
    32    6   30 1  
    33    7   31 1  
    34    8   32 1  
    35    8   33 1  
    36    8   34 1  
    37   10   35 1  
    38   10   36 1  
    39   11   37 1  
    40   12   38 1  
    41   12   39 1  
    42   14   40 1  
    43   16   41 1  
    44   17   42 1  
    45   19   43 1  
    46   20   44 1  
    47   21   45 1  
@<TRIPOS>SUBSTRUCTURE
     1 SUB1        1 GROUP

