1rdt_ligand
  -I-interpret- 

 55 58  0  0  0  0  0  0  0  0999 V2000
   10.7170   36.2230   45.5440 C   0  0  0  0  0
   11.7060   35.4770   46.1770 C   0  0  0  0  0
   12.7460   35.2610   45.3090 O   0  0  0  0  0
   12.4220   35.8680   44.1240 C   0  0  0  0  0
   11.1730   36.4650   44.2540 C   0  0  0  0  0
   11.5890   35.0460   47.4750 C   0  0  0  0  0
   12.1340   33.9130   47.9100 C   0  0  0  0  0
   12.0190   33.4180   49.3210 C   0  0  0  0  0
   12.6700   32.4120   49.6010 O   0  5  0  0  0
   11.2670   33.9590   50.1300 O   0  0  0  0  0
   10.4750   37.2330   43.1460 C   0  0  0  0  0
   11.4110   37.5540   41.9780 C   0  0  0  0  0
   12.5720   36.5990   41.6880 C   0  0  0  0  0
   13.2600   35.9040   42.8630 C   0  0  0  0  0
    9.0150   37.0690   42.7910 C   0  0  0  0  0
    8.2720   38.0890   42.3230 C   0  0  0  0  0
    6.9700   37.9980   41.9940 C   0  0  0  0  0
    6.2530   39.2330   41.4750 C   0  0  0  0  0
    4.7620   39.1060   41.1670 C   0  0  0  0  0
    6.2980   40.4060   42.4540 C   0  0  0  0  0
    6.8620   39.7600   40.1760 C   0  0  0  0  0
    6.3590   36.8020   42.1430 C   0  0  0  0  0
    4.8980   36.5650   41.8130 C   0  0  0  0  0
    4.0710   36.2260   43.0520 C   0  0  0  0  0
    4.1410   37.7090   41.1370 C   0  0  0  0  0
    4.6760   35.4050   40.8430 C   0  0  0  0  0
    7.0960   35.7750   42.6110 C   0  0  0  0  0
    8.3940   35.8850   42.9320 C   0  0  0  0  0
    9.7724   36.5522   45.9744 H   0  0  0  0  0
   11.0261   35.6575   48.1786 H   0  0  0  0  0
   12.6969   33.3094   47.1995 H   0  0  0  0  0
   10.4121   38.2176   43.6325 H   0  0  0  0  0
   11.8469   38.5447   42.1741 H   0  0  0  0  0
   10.7927   37.5987   41.0693 H   0  0  0  0  0
   12.9010   36.4185   40.6657 H   0  0  0  0  0
   14.2589   35.4750   42.7993 H   0  0  0  0  0
    8.7561   39.0514   42.2026 H   0  0  0  0  0
    4.5949   39.5572   40.1778 H   0  0  0  0  0
    4.2219   39.6854   41.9303 H   0  0  0  0  0
    7.3398   40.5949   42.7523 H   0  0  0  0  0
    5.6999   40.1634   43.3447 H   0  0  0  0  0
    5.8868   41.3039   41.9696 H   0  0  0  0  0
    6.8614   38.9608   39.4201 H   0  0  0  0  0
    7.8954   40.0879   40.3620 H   0  0  0  0  0
    6.2675   40.6104   39.8108 H   0  0  0  0  0
    3.0229   36.0639   42.7601 H   0  0  0  0  0
    4.1273   37.0580   43.7694 H   0  0  0  0  0
    4.4672   35.3120   43.5185 H   0  0  0  0  0
    4.0100   37.4333   40.0802 H   0  0  0  0  0
    3.1564   37.7797   41.6223 H   0  0  0  0  0
    5.1817   34.5058   41.2249 H   0  0  0  0  0
    5.0885   35.6670   39.8575 H   0  0  0  0  0
    3.5981   35.2072   40.7485 H   0  0  0  0  0
    6.6155   34.8112   42.7343 H   0  0  0  0  0
    8.9388   35.0243   43.3028 H   0  0  0  0  0
  1  2  2  0  0  0
  1  5  1  0  0  0
  2  3  1  0  0  0
  2  6  1  0  0  0
  3  4  1  0  0  0
  4  5  2  0  0  0
  4 14  1  0  0  0
  5 11  1  0  0  0
  6  7  2  0  0  0
  7  8  1  0  0  0
  8  9  1  0  0  0
  8 10  2  0  0  0
 11 12  1  0  0  0
 11 15  1  0  0  0
 12 13  1  0  0  0
 13 14  2  0  0  0
 15 16  4  0  0  0
 15 28  4  0  0  0
 16 17  4  0  0  0
 17 18  1  0  0  0
 17 22  4  0  0  0
 18 19  1  0  0  0
 18 20  1  0  0  0
 18 21  1  0  0  0
 19 25  1  0  0  0
 22 23  1  0  0  0
 22 27  4  0  0  0
 23 24  1  0  0  0
 23 25  1  0  0  0
 23 26  1  0  0  0
 27 28  4  0  0  0
  1 29  1  0  0  0
  6 30  1  0  0  0
  7 31  1  0  0  0
 11 32  1  0  0  0
 12 33  1  0  0  0
 12 34  1  0  0  0
 13 35  1  0  0  0
 14 36  1  0  0  0
 16 37  1  0  0  0
 19 38  1  0  0  0
 19 39  1  0  0  0
 20 40  1  0  0  0
 20 41  1  0  0  0
 20 42  1  0  0  0
 21 43  1  0  0  0
 21 44  1  0  0  0
 21 45  1  0  0  0
 24 46  1  0  0  0
 24 47  1  0  0  0
 24 48  1  0  0  0
 25 49  1  0  0  0
 25 50  1  0  0  0
 26 51  1  0  0  0
 26 52  1  0  0  0
 26 53  1  0  0  0
 27 54  1  0  0  0
 28 55  1  0  0  0
M  END
$$$$
