### 
### Created by X-TOOL on Tue Oct 25 01:47:15 2005
### 

@<TRIPOS>MOLECULE
1nje_ligand
   32    33     1     0     0
SMALL
GAST_HUCK


@<TRIPOS>ATOM
      1 N1         14.9720   48.6210  -53.6410 N.am      1 SUB1       -0.168
      2 C2         13.9580   47.6620  -53.3390 C.2       1 SUB1        0.251
      3 N3         13.4530   47.6980  -52.0380 N.2       1 SUB1       -0.277
      4 C4         13.8990   48.5830  -51.1030 C.2       1 SUB1        0.085
      5 C5         14.9300   49.5440  -51.4400 C.2       1 SUB1        0.008
      6 C6         15.4140   49.5060  -52.7440 C.2       1 SUB1        0.079
      7 O2         13.4740   46.8020  -54.0790 O.2       1 SUB1       -0.407
      8 N4         13.3350   48.5740  -49.8930 N.pl3     1 SUB1       -0.316
      9 C1'        15.7710   48.7160  -54.8950 C.3       1 SUB1        0.186
     10 C2'        15.2940   48.0030  -56.1650 C.3       1 SUB1        0.034
     11 C3'        16.2370   48.5670  -57.2150 C.3       1 SUB1        0.089
     12 C4'        16.2670   50.0920  -56.9730 C.3       1 SUB1        0.116
     13 O4'        16.0570   50.0850  -55.4720 O.3       1 SUB1       -0.337
     14 O3'        17.5420   47.9390  -56.9360 O.3       1 SUB1       -0.389
     15 C5'        15.0230   50.7860  -57.5420 C.3       1 SUB1        0.094
     16 O5'        14.9310   50.8660  -58.9920 O.3       1 SUB1       -0.320
     17 P          15.6650   52.0000  -59.8200 P.3       1 SUB1        0.205
     18 O1P        17.0980   51.7610  -59.7950 O.co2     1 SUB1       -0.535
     19 O2P        15.2470   51.8460  -61.2140 O.co2     1 SUB1       -0.535
     20 O3P        15.2910   53.2800  -59.2480 O.co2     1 SUB1       -0.535
     21 H51        15.3066   50.2592  -50.7102 H         1 SUB1        0.037
     22 H61        16.1785   50.2216  -53.0429 H         1 SUB1        0.133
     23 H81        13.6559   49.2340  -49.1703 H         1 SUB1        0.183
     24 H82        12.5789   47.9071  -49.6822 H         1 SUB1        0.183
     25 H91        16.7370   48.2688  -54.6177 H         1 SUB1        0.100
     26 H101       14.2469   48.2507  -56.3935 H         1 SUB1        0.035
     27 H102       15.4016   46.9119  -56.0756 H         1 SUB1        0.035
     28 H111       15.9031   48.3405  -58.2383 H         1 SUB1        0.062
     29 H121       17.1991   50.5698  -57.3089 H         1 SUB1        0.065
     30 H141       18.1833   48.2519  -57.5632 H         1 SUB1        0.210
     31 H151       15.0038   51.8131  -57.1487 H         1 SUB1        0.064
     32 H152       14.1400   50.2384  -57.1807 H         1 SUB1        0.064
@<TRIPOS>BOND
     1    1    9 1  
     2    1    6 am 
     3    1    2 am 
     4    2    7 2  
     5    2    3 1  
     6    3    4 2  
     7    4    8 1  
     8    4    5 1  
     9    5    6 2  
    10    9   13 1  
    11    9   10 1  
    12   10   11 1  
    13   11   14 1  
    14   11   12 1  
    15   12   15 1  
    16   12   13 1  
    17   15   16 1  
    18   16   17 1  
    19   17   20 2  
    20   17   19 2  
    21   17   18 2  
    22    5   21 1  
    23    6   22 1  
    24    8   23 1  
    25    8   24 1  
    26    9   25 1  
    27   10   26 1  
    28   10   27 1  
    29   11   28 1  
    30   12   29 1  
    31   14   30 1  
    32   15   31 1  
    33   15   32 1  
@<TRIPOS>SUBSTRUCTURE
     1 SUB1        1 GROUP

