### 
### Created by X-TOOL on Tue Oct 25 00:19:41 2005
### 

@<TRIPOS>MOLECULE
1lah_ligand
   22    21     1     0     0
SMALL
GAST_HUCK


@<TRIPOS>ATOM
      1 N          31.6610   30.0560   67.9460 N.4       1 SUB1        0.238
      2 CA         31.8960   28.7210   67.5140 C.3       1 SUB1        0.015
      3 C          31.2990   27.9130   68.6750 C.2       1 SUB1        0.076
      4 O          30.9390   28.4620   69.7170 O.co2     1 SUB1       -0.561
      5 CB         33.4100   28.4100   67.3660 C.3       1 SUB1        0.006
      6 CG         34.3690   28.8510   68.5040 C.3       1 SUB1       -0.005
      7 CD         35.5940   27.9370   68.5380 C.3       1 SUB1       -0.035
      8 NE         36.5720   28.3860   69.5370 N.4       1 SUB1        0.219
      9 OXT        31.1990   26.7110   68.5430 O.co2     1 SUB1       -0.561
     10 H11        32.0147   30.6997   67.2556 H         1 SUB1        0.202
     11 H12        32.1312   30.2129   68.8237 H         1 SUB1        0.202
     12 H13        30.6706   30.2014   68.0647 H         1 SUB1        0.202
     13 H21        31.3813   28.5114   66.5647 H         1 SUB1        0.107
     14 H51        33.7539   28.8997   66.4430 H         1 SUB1        0.036
     15 H52        33.5093   27.3195   67.2615 H         1 SUB1        0.036
     16 H61        33.8426   28.7908   69.4680 H         1 SUB1        0.032
     17 H62        34.6924   29.8873   68.3269 H         1 SUB1        0.032
     18 H71        36.0694   27.9392   67.5461 H         1 SUB1        0.081
     19 H72        35.2712   26.9155   68.7877 H         1 SUB1        0.081
     20 H81        37.3651   27.7639   69.5340 H         1 SUB1        0.199
     21 H82        36.1454   28.3821   70.4503 H         1 SUB1        0.199
     22 H83        36.8769   29.3202   69.3125 H         1 SUB1        0.199
@<TRIPOS>BOND
     1    2    5 1  
     2    2    3 1  
     3    2    1 1  
     4    3    9 2  
     5    3    4 2  
     6    5    6 1  
     7    6    7 1  
     8    7    8 1  
     9    1   10 1  
    10    1   11 1  
    11    1   12 1  
    12    2   13 1  
    13    5   14 1  
    14    5   15 1  
    15    6   16 1  
    16    6   17 1  
    17    7   18 1  
    18    7   19 1  
    19    8   20 1  
    20    8   21 1  
    21    8   22 1  
@<TRIPOS>SUBSTRUCTURE
     1 SUB1        1 GROUP

