### 
### Created by X-TOOL on Mon Oct 24 23:44:37 2005
### 

@<TRIPOS>MOLECULE
1avn_ligand
   18    18     1     0     0
SMALL
GAST_HUCK


@<TRIPOS>ATOM
      1 N           0.4720    5.1050    9.7360 N.4       1 SUB1        0.220
      2 CA         -0.6460    5.9190   10.2390 C.3       1 SUB1       -0.024
      3 CB         -1.9700    5.5830    9.5670 C.3       1 SUB1        0.042
      4 CG         -3.1410    4.9460   10.2360 C.2       1 SUB1        0.057
      5 ND1        -3.4800    3.6270   10.0410 N.pl3     1 SUB1       -0.262
      6 CD2        -4.0830    5.4150   11.0870 C.2       1 SUB1       -0.028
      7 CE1        -4.5450    3.2880   10.7310 C.2       1 SUB1        0.087
      8 NE2        -4.9260    4.3630   11.3830 N.2       1 SUB1       -0.344
      9 H11         1.3202    5.3679   10.2130 H         1 SUB1        0.200
     10 H12         0.5815    5.2597    8.7460 H         1 SUB1        0.200
     11 H13         0.2802    4.1299    9.9046 H         1 SUB1        0.200
     12 H21        -0.4185    6.9796   10.0564 H         1 SUB1        0.084
     13 H22        -0.7473    5.7467   11.3207 H         1 SUB1        0.084
     14 H31        -1.7118    4.9142    8.7327 H         1 SUB1        0.050
     15 H32        -2.3454    6.5374    9.1693 H         1 SUB1        0.050
     16 H51        -2.9610    2.9827    9.4276 H         1 SUB1        0.239
     17 H61        -4.1613    6.4325   11.4672 H         1 SUB1        0.032
     18 H71        -5.0192    2.3080   10.7574 H         1 SUB1        0.115
@<TRIPOS>BOND
     1    1    2 1  
     2    2    3 1  
     3    3    4 1  
     4    4    6 2  
     5    4    5 1  
     6    5    7 1  
     7    7    8 2  
     8    8    6 1  
     9    1    9 1  
    10    1   10 1  
    11    1   11 1  
    12    2   12 1  
    13    2   13 1  
    14    3   14 1  
    15    3   15 1  
    16    5   16 1  
    17    6   17 1  
    18    7   18 1  
@<TRIPOS>SUBSTRUCTURE
     1 SUB1        1 GROUP

