1mh5_ligand
  -I-interpret- 

 60 61  0  0  0  0  0  0  0  0999 V2000
   30.5160  -39.0010   42.2600 C   0  0  0  0  0
   30.7510  -38.3080   41.0700 C   0  0  0  0  0
   30.8830  -36.9180   41.0610 C   0  0  0  0  0
   30.7830  -36.2050   42.2470 C   0  0  0  0  0
   30.5570  -36.8810   43.4420 C   0  0  0  0  0
   30.4260  -38.2780   43.4430 C   0  0  0  0  0
   30.2680  -40.4920   42.2480 C   0  0  0  0  0
   28.8200  -40.8490   42.0730 C   0  0  0  0  0
   28.5250  -42.2770   41.9730 N   0  0  0  0  0
   27.3030  -42.7660   42.1590 C   0  0  0  0  0
   26.3500  -42.0360   42.4180 O   0  0  0  0  0
   27.0830  -44.2760   42.0040 C   0  0  0  0  0
   28.2300  -45.0060   42.4230 O   0  0  0  0  0
   29.2050  -45.6580   41.3470 P   0  0  0  0  0
   30.4760  -44.8850   41.2810 O   0  5  0  0  0
   28.4220  -45.8710   40.1070 O   0  0  0  0  0
   29.5390  -46.9640   41.8520 C   0  0  0  0  0
   30.6370  -47.6290   41.0320 C   0  0  0  0  0
   31.0150  -48.9970   41.5280 C   0  0  0  0  0
   30.3020  -50.1220   41.1200 C   0  0  0  0  0
   30.6530  -51.3890   41.5800 C   0  0  0  0  0
   31.7220  -51.5390   42.4600 C   0  0  0  0  0
   32.4350  -50.4220   42.8740 C   0  0  0  0  0
   32.0790  -49.1630   42.4100 C   0  0  0  0  0
   29.9750  -46.9290   43.2390 N   0  0  0  0  0
   29.4100  -47.6860   44.1740 C   0  0  0  0  0
   28.4730  -48.4480   43.9420 O   0  0  0  0  0
   29.9620  -47.5600   45.5740 C   0  0  0  0  0
   30.5500  -48.8530   46.0750 C   0  0  0  0  0
   29.4820  -49.9140   46.1920 C   0  0  0  0  0
   30.0560  -51.2960   46.4230 C   0  0  0  0  0
   30.8170  -51.7770   45.5510 O   0  5  0  0  0
   29.7460  -51.8980   47.4740 O   0  0  0  0  0
   30.8321  -38.8578   40.1393 H   0  0  0  0  0
   31.0635  -36.3963   40.1281 H   0  0  0  0  0
   30.8806  -35.1254   42.2427 H   0  0  0  0  0
   30.4822  -36.3287   44.3717 H   0  0  0  0  0
   30.2526  -38.7992   44.3775 H   0  0  0  0  0
   30.8305  -40.9401   41.4157 H   0  0  0  0  0
   30.6089  -40.9176   43.2033 H   0  0  0  0  0
   28.2624  -40.4599   42.9376 H   0  0  0  0  0
   28.4576  -40.3750   41.1489 H   0  0  0  0  0
   29.2693  -42.9089   41.7569 H   0  0  0  0  0
   26.2274  -44.5863   42.6217 H   0  0  0  0  0
   26.8873  -44.5106   40.9473 H   0  0  0  0  0
   28.6338  -47.5871   41.8036 H   0  0  0  0  0
   30.2906  -47.7313   39.9930 H   0  0  0  0  0
   31.5370  -46.9975   41.0669 H   0  0  0  0  0
   29.4665  -50.0104   40.4384 H   0  0  0  0  0
   30.0941  -52.2584   41.2530 H   0  0  0  0  0
   31.9962  -52.5239   42.8202 H   0  0  0  0  0
   33.2683  -50.5328   43.5584 H   0  0  0  0  0
   32.6386  -48.2952   42.7399 H   0  0  0  0  0
   30.7225  -46.3169   43.4970 H   0  0  0  0  0
   30.7544  -46.7971   45.5816 H   0  0  0  0  0
   29.1509  -47.2651   46.2559 H   0  0  0  0  0
   31.3181  -49.2049   45.3707 H   0  0  0  0  0
   30.9962  -48.6938   47.0677 H   0  0  0  0  0
   28.8259  -49.6706   47.0407 H   0  0  0  0  0
   28.8971  -49.9385   45.2608 H   0  0  0  0  0
  1  2  4  0  0  0
  1  6  4  0  0  0
  1  7  1  0  0  0
  2  3  4  0  0  0
  3  4  4  0  0  0
  4  5  4  0  0  0
  5  6  4  0  0  0
  7  8  1  0  0  0
  8  9  1  0  0  0
  9 10  1  0  0  0
 10 11  2  0  0  0
 10 12  1  0  0  0
 12 13  1  0  0  0
 13 14  1  0  0  0
 14 15  1  0  0  0
 14 16  2  0  0  0
 14 17  1  0  0  0
 17 18  1  0  0  0
 17 25  1  0  0  0
 18 19  1  0  0  0
 19 20  4  0  0  0
 19 24  4  0  0  0
 20 21  4  0  0  0
 21 22  4  0  0  0
 22 23  4  0  0  0
 23 24  4  0  0  0
 25 26  1  0  0  0
 26 27  2  0  0  0
 26 28  1  0  0  0
 28 29  1  0  0  0
 29 30  1  0  0  0
 30 31  1  0  0  0
 31 32  1  0  0  0
 31 33  2  0  0  0
  2 34  1  0  0  0
  3 35  1  0  0  0
  4 36  1  0  0  0
  5 37  1  0  0  0
  6 38  1  0  0  0
  7 39  1  0  0  0
  7 40  1  0  0  0
  8 41  1  0  0  0
  8 42  1  0  0  0
  9 43  1  0  0  0
 12 44  1  0  0  0
 12 45  1  0  0  0
 17 46  1  0  0  0
 18 47  1  0  0  0
 18 48  1  0  0  0
 20 49  1  0  0  0
 21 50  1  0  0  0
 22 51  1  0  0  0
 23 52  1  0  0  0
 24 53  1  0  0  0
 25 54  1  0  0  0
 28 55  1  0  0  0
 28 56  1  0  0  0
 29 57  1  0  0  0
 29 58  1  0  0  0
 30 59  1  0  0  0
 30 60  1  0  0  0
M  END
$$$$
