### 
### Created by X-TOOL on Tue Oct 25 00:58:52 2005
### 

@<TRIPOS>MOLECULE
1mh5_ligand
   60    61     1     0     0
SMALL
GAST_HUCK


@<TRIPOS>ATOM
      1 CP1        30.5160  -39.0010   42.2600 C.ar      1 SUB1       -0.041
      2 CP2        30.7510  -38.3080   41.0700 C.ar      1 SUB1       -0.060
      3 CP3        30.8830  -36.9180   41.0610 C.ar      1 SUB1       -0.069
      4 CP4        30.7830  -36.2050   42.2470 C.ar      1 SUB1       -0.069
      5 CP5        30.5570  -36.8810   43.4420 C.ar      1 SUB1       -0.069
      6 CP6        30.4260  -38.2780   43.4430 C.ar      1 SUB1       -0.060
      7 C1         30.2680  -40.4920   42.2480 C.3       1 SUB1        0.001
      8 C2         28.8200  -40.8490   42.0730 C.3       1 SUB1        0.041
      9 N1         28.5250  -42.2770   41.9730 N.am      1 SUB1       -0.283
     10 C3         27.3030  -42.7660   42.1590 C.2       1 SUB1        0.207
     11 O1         26.3500  -42.0360   42.4180 O.2       1 SUB1       -0.394
     12 C4         27.0830  -44.2760   42.0040 C.3       1 SUB1        0.154
     13 O2         28.2300  -45.0060   42.4230 O.3       1 SUB1       -0.309
     14 P          29.2050  -45.6580   41.3470 P.3       1 SUB1        0.154
     15 O3         30.4760  -44.8850   41.2810 O.co2     1 SUB1       -0.543
     16 O4         28.4220  -45.8710   40.1070 O.co2     1 SUB1       -0.543
     17 C5         29.5390  -46.9640   41.8520 C.3       1 SUB1        0.106
     18 C6         30.6370  -47.6290   41.0320 C.3       1 SUB1        0.009
     19 CR1        31.0150  -48.9970   41.5280 C.ar      1 SUB1       -0.041
     20 CR2        30.3020  -50.1220   41.1200 C.ar      1 SUB1       -0.060
     21 CR3        30.6530  -51.3890   41.5800 C.ar      1 SUB1       -0.069
     22 CR4        31.7220  -51.5390   42.4600 C.ar      1 SUB1       -0.069
     23 CR5        32.4350  -50.4220   42.8740 C.ar      1 SUB1       -0.069
     24 CR6        32.0790  -49.1630   42.4100 C.ar      1 SUB1       -0.060
     25 N2         29.9750  -46.9290   43.2390 N.am      1 SUB1       -0.276
     26 C7         29.4100  -47.6860   44.1740 C.2       1 SUB1        0.177
     27 O5         28.4730  -48.4480   43.9420 O.2       1 SUB1       -0.397
     28 C8         29.9620  -47.5600   45.5740 C.3       1 SUB1        0.040
     29 C9         30.5500  -48.8530   46.0750 C.3       1 SUB1       -0.025
     30 C10        29.4820  -49.9140   46.1920 C.3       1 SUB1       -0.012
     31 C11        30.0560  -51.2960   46.4230 C.2       1 SUB1        0.028
     32 O6         30.8170  -51.7770   45.5510 O.co2     1 SUB1       -0.567
     33 O7         29.7460  -51.8980   47.4740 O.co2     1 SUB1       -0.567
     34 H21        30.8321  -38.8578   40.1393 H         1 SUB1        0.056
     35 H31        31.0635  -36.3963   40.1281 H         1 SUB1        0.060
     36 H41        30.8806  -35.1254   42.2427 H         1 SUB1        0.056
     37 H51        30.4822  -36.3287   44.3717 H         1 SUB1        0.060
     38 H61        30.2526  -38.7992   44.3775 H         1 SUB1        0.056
     39 H71        30.8305  -40.9401   41.4157 H         1 SUB1        0.045
     40 H72        30.6089  -40.9176   43.2033 H         1 SUB1        0.045
     41 H81        28.2624  -40.4599   42.9376 H         1 SUB1        0.054
     42 H82        28.4576  -40.3750   41.1489 H         1 SUB1        0.054
     43 H91        29.2693  -42.9089   41.7569 H         1 SUB1        0.185
     44 H121       26.2274  -44.5863   42.6217 H         1 SUB1        0.086
     45 H122       26.8873  -44.5106   40.9473 H         1 SUB1        0.086
     46 H171       28.6338  -47.5871   41.8036 H         1 SUB1        0.064
     47 H181       30.2906  -47.7313   39.9930 H         1 SUB1        0.045
     48 H182       31.5370  -46.9975   41.0669 H         1 SUB1        0.045
     49 H201       29.4665  -50.0104   40.4384 H         1 SUB1        0.056
     50 H211       30.0941  -52.2584   41.2530 H         1 SUB1        0.060
     51 H221       31.9962  -52.5239   42.8202 H         1 SUB1        0.056
     52 H231       33.2683  -50.5328   43.5584 H         1 SUB1        0.060
     53 H241       32.6386  -48.2952   42.7399 H         1 SUB1        0.056
     54 H251       30.7225  -46.3169   43.4970 H         1 SUB1        0.186
     55 H281       30.7544  -46.7971   45.5816 H         1 SUB1        0.051
     56 H282       29.1509  -47.2651   46.2559 H         1 SUB1        0.051
     57 H291       31.3181  -49.2049   45.3707 H         1 SUB1        0.032
     58 H292       30.9962  -48.6938   47.0677 H         1 SUB1        0.032
     59 H301       28.8259  -49.6706   47.0407 H         1 SUB1        0.049
     60 H302       28.8971  -49.9385   45.2608 H         1 SUB1        0.049
@<TRIPOS>BOND
     1    1    2 ar 
     2    1    6 ar 
     3    1    7 1  
     4    2    3 ar 
     5    3    4 ar 
     6    4    5 ar 
     7    5    6 ar 
     8    7    8 1  
     9    8    9 1  
    10    9   10 am 
    11   10   11 2  
    12   10   12 1  
    13   12   13 1  
    14   13   14 1  
    15   14   15 2  
    16   14   16 2  
    17   14   17 1  
    18   17   18 1  
    19   17   25 1  
    20   18   19 1  
    21   19   20 ar 
    22   19   24 ar 
    23   20   21 ar 
    24   21   22 ar 
    25   22   23 ar 
    26   23   24 ar 
    27   25   26 am 
    28   26   27 2  
    29   26   28 1  
    30   28   29 1  
    31   29   30 1  
    32   30   31 1  
    33   31   32 2  
    34   31   33 2  
    35    2   34 1  
    36    3   35 1  
    37    4   36 1  
    38    5   37 1  
    39    6   38 1  
    40    7   39 1  
    41    7   40 1  
    42    8   41 1  
    43    8   42 1  
    44    9   43 1  
    45   12   44 1  
    46   12   45 1  
    47   17   46 1  
    48   18   47 1  
    49   18   48 1  
    50   20   49 1  
    51   21   50 1  
    52   22   51 1  
    53   23   52 1  
    54   24   53 1  
    55   25   54 1  
    56   28   55 1  
    57   28   56 1  
    58   29   57 1  
    59   29   58 1  
    60   30   59 1  
    61   30   60 1  
@<TRIPOS>SUBSTRUCTURE
     1 SUB1        1 GROUP

