1a94_ligand
  -I-interpret- 

128128  0  0  0  0  0  0  0  0999 V2000
   50.8690   20.6100   27.1570 N   0  3  0  0  0
   51.6100   19.8510   28.2070 C   0  0  0  0  0
   53.0860   20.2070   28.1870 C   0  0  0  0  0
   53.6660   20.4070   27.1310 O   0  0  0  0  0
   51.4600   18.3210   28.0200 C   0  0  0  0  0
   50.0880   17.7100   28.3800 C   0  0  0  0  0
   49.5980   18.0580   29.8260 C   0  0  0  0  0
   48.3250   17.4210   30.1800 N   0  0  0  0  0
   48.1320   16.1030   30.2180 C   0  3  0  0  0
   49.1170   15.2680   29.9350 N   0  0  0  0  0
   46.9390   15.6140   30.5030 N   0  0  0  0  0
   50.9950   21.6310   27.2830 H   0  0  0  0  0
   51.3040   20.2950   26.2660 H   0  0  0  0  0
   49.8650   20.3490   27.2080 H   0  0  0  0  0
   47.5740   18.0040   30.4180 H   0  0  0  0  0
   50.0230   15.6180   29.6960 H   0  0  0  0  0
   48.9530   14.2840   29.9550 H   0  0  0  0  0
   46.1790   16.2350   30.7100 H   0  0  0  0  0
   46.8060   14.6240   30.5470 H   0  0  0  0  0
   53.6690   20.2890   29.3720 N   0  0  0  0  0
   55.0580   20.6150   29.5840 C   0  0  0  0  0
   55.5940   19.4090   30.3930 C   0  0  0  0  0
   55.3680   19.2930   31.6080 O   0  0  0  0  0
   55.1690   21.9200   30.3950 C   0  0  0  0  0
   56.6010   22.4200   30.3940 C   0  0  0  0  0
   54.2290   22.9820   29.8400 C   0  0  0  0  0
   53.1530   20.1130   30.1910 H   0  0  0  0  0
   56.3130   18.5180   29.7170 N   0  0  0  0  0
   56.7930   17.3100   30.3630 C   0  0  0  0  0
   58.1850   17.2950   30.9450 C   0  0  0  0  0
   58.8360   16.2510   30.9810 O   0  0  0  0  0
   56.5500   16.1270   29.4520 C   0  0  0  0  0
   55.0840   16.1660   29.0310 C   0  0  0  0  0
   54.7950   15.3140   27.8110 C   0  0  0  0  0
   54.2320   15.7850   30.2140 C   0  0  0  0  0
   56.4980   18.6620   28.7610 H   0  0  0  0  0
   58.6570   18.4620   31.3750 N   0  0  0  0  0
   59.9500   18.5840   32.0340 C   0  0  0  0  0
   59.9260   17.5780   33.2260 C   0  0  0  0  0
   58.8900   17.3740   33.8940 O   0  0  0  0  0
   60.1200   20.0380   32.4960 C   0  0  0  0  0
   61.0300   20.1980   33.6810 C   0  0  0  0  0
   62.3990   20.0230   33.5480 C   0  0  0  0  0
   60.4980   20.4190   34.9480 C   0  0  0  0  0
   63.2270   20.0520   34.6550 C   0  0  0  0  0
   61.3080   20.4500   36.0610 C   0  0  0  0  0
   62.6720   20.2620   35.9190 C   0  0  0  0  0
   58.0970   19.2530   31.2680 H   0  0  0  0  0
   61.0460   16.9280   33.4910 N   0  0  0  0  0
   61.1040   15.9430   34.5730 C   0  0  0  0  0
   62.5210   15.9540   35.1270 C   0  0  0  0  0
   63.5140   15.7680   34.4230 O   0  0  0  0  0
   60.6670   14.5720   34.0260 C   0  0  0  0  0
   60.8330   13.3810   34.9590 C   0  0  0  0  0
   62.2940   12.9710   35.1210 C   0  0  0  0  0
   63.0510   13.2100   34.1510 O   0  0  0  0  0
   62.6960   12.4490   36.2020 O   0  5  0  0  0
   61.8500   17.0970   32.9480 H   0  0  0  0  0
   62.6330   16.2310   36.3980 N   0  0  0  0  0
   63.9490   16.2950   36.9880 C   0  0  0  0  0
   64.0660   15.3140   38.1270 C   0  0  0  0  0
   63.1280   15.1480   38.9200 O   0  0  0  0  0
   64.2270   17.7130   37.4750 C   0  0  0  0  0
   61.8390   16.3480   36.9600 H   0  0  0  0  0
   65.2230   14.6810   38.2110 N   0  0  0  0  0
   65.5060   13.7020   39.2450 C   0  0  0  0  0
   64.7380   13.8600   40.5620 C   0  0  0  0  0
   64.9380   14.8420   41.3310 O   0  0  0  0  0
   67.0020   13.6810   39.5010 C   0  0  0  0  0
   67.7940   13.0550   38.3560 C   0  0  0  0  0
   67.7570   11.5290   38.4250 C   0  0  0  0  0
   68.9090   10.9520   37.6030 C   0  0  0  0  0
   65.9350   14.8930   37.5850 H   0  0  0  0  0
   63.8820   12.9800   40.7800 N   0  0  0  0  0
   51.1936   20.1260   29.1873 H   0  0  0  0  0
   52.2181   17.8322   28.6495 H   0  0  0  0  0
   51.6593   18.0932   26.9625 H   0  0  0  0  0
   50.1627   16.6160   28.2936 H   0  0  0  0  0
   49.3431   18.0844   27.6624 H   0  0  0  0  0
   49.4740   19.1485   29.8989 H   0  0  0  0  0
   50.3643   17.7274   30.5426 H   0  0  0  0  0
   55.5947   20.7214   28.6297 H   0  0  0  0  0
   54.8760   21.7085   31.4339 H   0  0  0  0  0
   57.2536   21.6640   30.8550 H   0  0  0  0  0
   56.6628   23.3566   30.9676 H   0  0  0  0  0
   56.9251   22.6020   29.3587 H   0  0  0  0  0
   54.4971   23.1993   28.7955 H   0  0  0  0  0
   54.3177   23.8998   30.4398 H   0  0  0  0  0
   53.1933   22.6140   29.8838 H   0  0  0  0  0
   56.1320   17.1722   31.2314 H   0  0  0  0  0
   56.7619   15.1902   29.9882 H   0  0  0  0  0
   57.1974   16.1965   28.5654 H   0  0  0  0  0
   54.8409   17.2045   28.7619 H   0  0  0  0  0
   55.3881   15.6794   26.9597 H   0  0  0  0  0
   53.7245   15.3761   27.5656 H   0  0  0  0  0
   55.0626   14.2682   28.0223 H   0  0  0  0  0
   54.4915   14.7670   30.5400 H   0  0  0  0  0
   53.1705   15.8189   29.9275 H   0  0  0  0  0
   54.4120   16.4910   31.0381 H   0  0  0  0  0
   60.7645   18.3230   31.3423 H   0  0  0  0  0
   59.1295   20.4343   32.7640 H   0  0  0  0  0
   60.5341   20.6208   31.6601 H   0  0  0  0  0
   62.8252   19.8615   32.5645 H   0  0  0  0  0
   59.4303   20.5689   35.0602 H   0  0  0  0  0
   64.2962   19.9131   34.5427 H   0  0  0  0  0
   60.8802   20.6206   37.0423 H   0  0  0  0  0
   63.3125   20.2779   36.7934 H   0  0  0  0  0
   60.4098   16.2342   35.3750 H   0  0  0  0  0
   61.2573   14.3707   33.1199 H   0  0  0  0  0
   59.6017   14.6425   33.7613 H   0  0  0  0  0
   60.2701   12.5295   34.5491 H   0  0  0  0  0
   60.4285   13.6465   35.9469 H   0  0  0  0  0
   64.6928   16.0325   36.2213 H   0  0  0  0  0
   63.4763   17.9960   38.2276 H   0  0  0  0  0
   64.1747   18.4094   36.6252 H   0  0  0  0  0
   65.2304   17.7566   37.9235 H   0  0  0  0  0
   65.2205   12.7213   38.8368 H   0  0  0  0  0
   67.1929   13.1023   40.4168 H   0  0  0  0  0
   67.3481   14.7155   39.6421 H   0  0  0  0  0
   68.8395   13.3912   38.4176 H   0  0  0  0  0
   67.3596   13.3811   37.3995 H   0  0  0  0  0
   66.8006   11.1670   38.0198 H   0  0  0  0  0
   67.8569   11.2071   39.4721 H   0  0  0  0  0
   68.8812    9.8535   37.6535 H   0  0  0  0  0
   69.8656   11.3136   38.0081 H   0  0  0  0  0
   68.8093   11.2735   36.5558 H   0  0  0  0  0
   63.3366   13.0096   41.6176 H   0  0  0  0  0
   63.7409   12.2446   40.1172 H   0  0  0  0  0
  3  2  1  0  0  0
  2  5  1  0  0  0
  2  1  1  0  0  0
  1 14  1  0  0  0
  1 13  1  0  0  0
  1 12  1  0  0  0
  5  6  1  0  0  0
  6  7  1  0  0  0
  7  8  1  0  0  0
  8 15  1  0  0  0
  8  9  1  0  0  0
  9 10  1  0  0  0
  9 11  1  0  0  0
 11 19  1  0  0  0
 11 18  1  0  0  0
 10 17  1  0  0  0
 10 16  1  0  0  0
  3  4  2  0  0  0
 22 21  1  0  0  0
 21 24  1  0  0  0
 21 20  1  0  0  0
 20 27  1  0  0  0
 24 25  1  0  0  0
 24 26  1  0  0  0
 22 23  2  0  0  0
 30 29  1  0  0  0
 29 32  1  0  0  0
 29 28  1  0  0  0
 28 36  1  0  0  0
 32 33  1  0  0  0
 33 35  1  0  0  0
 33 34  1  0  0  0
 30 31  2  0  0  0
 39 38  1  0  0  0
 38 41  1  0  0  0
 38 37  1  0  0  0
 37 48  1  0  0  0
 41 42  1  0  0  0
 42 44  4  0  0  0
 42 43  4  0  0  0
 43 45  4  0  0  0
 45 47  4  0  0  0
 46 47  4  0  0  0
 44 46  4  0  0  0
 39 40  2  0  0  0
 51 50  1  0  0  0
 50 53  1  0  0  0
 50 49  1  0  0  0
 49 58  1  0  0  0
 53 54  1  0  0  0
 54 55  1  0  0  0
 55 56  2  0  0  0
 55 57  1  0  0  0
 51 52  2  0  0  0
 61 60  1  0  0  0
 60 63  1  0  0  0
 60 59  1  0  0  0
 59 64  1  0  0  0
 61 62  2  0  0  0
 65 73  1  0  0  0
 65 66  1  0  0  0
 66 69  1  0  0  0
 66 67  1  0  0  0
 67 68  2  0  0  0
 69 70  1  0  0  0
 70 71  1  0  0  0
 71 72  1  0  0  0
 20  3  1  0  0  0
 28 22  1  0  0  0
 37 30  1  0  0  0
 49 39  1  0  0  0
 59 51  1  0  0  0
 61 65  1  0  0  0
 67 74  1  0  0  0
  2 75  1  0  0  0
  5 76  1  0  0  0
  5 77  1  0  0  0
  6 78  1  0  0  0
  6 79  1  0  0  0
  7 80  1  0  0  0
  7 81  1  0  0  0
 21 82  1  0  0  0
 24 83  1  0  0  0
 25 84  1  0  0  0
 25 85  1  0  0  0
 25 86  1  0  0  0
 26 87  1  0  0  0
 26 88  1  0  0  0
 26 89  1  0  0  0
 29 90  1  0  0  0
 32 91  1  0  0  0
 32 92  1  0  0  0
 33 93  1  0  0  0
 34 94  1  0  0  0
 34 95  1  0  0  0
 34 96  1  0  0  0
 35 97  1  0  0  0
 35 98  1  0  0  0
 35 99  1  0  0  0
 38100  1  0  0  0
 41101  1  0  0  0
 41102  1  0  0  0
 43103  1  0  0  0
 44104  1  0  0  0
 45105  1  0  0  0
 46106  1  0  0  0
 47107  1  0  0  0
 50108  1  0  0  0
 53109  1  0  0  0
 53110  1  0  0  0
 54111  1  0  0  0
 54112  1  0  0  0
 60113  1  0  0  0
 63114  1  0  0  0
 63115  1  0  0  0
 63116  1  0  0  0
 66117  1  0  0  0
 69118  1  0  0  0
 69119  1  0  0  0
 70120  1  0  0  0
 70121  1  0  0  0
 71122  1  0  0  0
 71123  1  0  0  0
 72124  1  0  0  0
 72125  1  0  0  0
 72126  1  0  0  0
 74127  1  0  0  0
 74128  1  0  0  0
M  END
$$$$
