### 
### Created by X-TOOL on Mon Oct 24 22:01:24 2005
### 

@<TRIPOS>MOLECULE
1gja_ligand
   33    34     1     0     0
SMALL
GAST_HUCK


@<TRIPOS>ATOM
      1 H161        9.7375   -0.2027   23.6933 H         1 SUB1        0.062
      2 H171       10.5302    2.0085   22.9707 H         1 SUB1        0.050
      3 H191        8.4054    3.8500   26.1974 H         1 SUB1        0.050
      4 H201        7.5924    1.6283   26.9264 H         1 SUB1        0.062
      5 H221        7.1866   -1.7704   27.2318 H         1 SUB1        0.192
      6 H222        7.3318   -0.0110   27.4888 H         1 SUB1        0.192
      7 H231        8.9241   -1.6954   24.1715 H         1 SUB1        0.192
      8 H232        8.0870   -2.7170   25.3707 H         1 SUB1        0.192
      9 H241       10.8373    4.0543   23.5191 H         1 SUB1        0.225
     10 H281        8.9843    7.8963   24.1081 H         1 SUB1        0.064
     11 H291       10.1856    9.6717   22.9307 H         1 SUB1        0.054
     12 H301       12.3844    9.2359   21.9049 H         1 SUB1        0.062
     13 H311       13.2940    6.9454   21.8883 H         1 SUB1        0.056
     14 H331       11.8136    4.2268   23.4191 H         1 SUB1        0.251
     15 C1          8.6090    0.5270   25.3730 C.ar      1 SUB1        0.170
     16 C2          9.4400    0.6780   24.2510 C.ar      1 SUB1       -0.021
     17 C3          9.8880    1.9150   23.8390 C.ar      1 SUB1       -0.037
     18 C4          9.5050    3.0280   24.5500 C.ar      1 SUB1        0.066
     19 C5          8.6900    2.9550   25.6560 C.ar      1 SUB1       -0.037
     20 C6          8.2410    1.7030   26.0610 C.ar      1 SUB1       -0.021
     21 C7          8.1680   -0.7360   25.7880 C.cat     1 SUB1        0.308
     22 N1          7.5160   -0.8470   26.9160 N.pl3     1 SUB1       -0.202
     23 N2          8.4100   -1.7900   25.0590 N.pl3     1 SUB1       -0.202
     24 N3         10.0240    4.1440   24.0940 N.am      1 SUB1       -0.235
     25 C8          9.5920    5.3670   24.3100 C.2       1 SUB1        0.227
     26 O8          8.6100    5.6680   24.9770 O.2       1 SUB1       -0.379
     27 C9         10.3990    6.3420   23.6500 C.ar      1 SUB1        0.084
     28 C10         9.9210    7.6630   23.6150 C.ar      1 SUB1       -0.050
     29 C11        10.6100    8.6750   22.9700 C.ar      1 SUB1       -0.067
     30 C12        11.8340    8.4290   22.3750 C.ar      1 SUB1       -0.066
     31 C13        12.3510    7.1460   22.3840 C.ar      1 SUB1       -0.027
     32 C14        11.6740    6.1070   23.0230 C.ar      1 SUB1        0.110
     33 O14        12.3300    4.8830   22.9660 O.3       1 SUB1       -0.328
@<TRIPOS>BOND
     1   16    1 1  
     2   17    2 1  
     3   19    3 1  
     4   20    4 1  
     5   22    5 1  
     6   22    6 1  
     7   23    7 1  
     8   23    8 1  
     9   24    9 1  
    10   28   10 1  
    11   29   11 1  
    12   30   12 1  
    13   31   13 1  
    14   33   14 1  
    15   21   15 1  
    16   15   20 ar 
    17   15   16 ar 
    18   16   17 ar 
    19   17   18 ar 
    20   18   24 1  
    21   19   18 ar 
    22   20   19 ar 
    23   24   25 am 
    24   25   27 1  
    25   25   26 2  
    26   27   32 ar 
    27   27   28 ar 
    28   28   29 ar 
    29   29   30 ar 
    30   31   30 ar 
    31   32   31 ar 
    32   32   33 1  
    33   21   23 1  
    34   21   22 1  
@<TRIPOS>SUBSTRUCTURE
     1 SUB1        1 GROUP

