1gja_ligand
  -I-interpret- 

 33 34  0  0  0  0  0  0  0  0999 V2000
    9.7375   -0.2027   23.6933 H   0  0  0  0  0
   10.5302    2.0085   22.9707 H   0  0  0  0  0
    8.4054    3.8500   26.1974 H   0  0  0  0  0
    7.5924    1.6283   26.9264 H   0  0  0  0  0
    7.1866   -1.7704   27.2318 H   0  0  0  0  0
    7.3318   -0.0110   27.4888 H   0  0  0  0  0
    8.9241   -1.6954   24.1715 H   0  0  0  0  0
    8.0870   -2.7170   25.3707 H   0  0  0  0  0
   10.8373    4.0543   23.5191 H   0  0  0  0  0
    8.9843    7.8963   24.1081 H   0  0  0  0  0
   10.1856    9.6717   22.9307 H   0  0  0  0  0
   12.3844    9.2359   21.9049 H   0  0  0  0  0
   13.2940    6.9454   21.8883 H   0  0  0  0  0
   11.8136    4.2268   23.4191 H   0  0  0  0  0
    8.6090    0.5270   25.3730 C   0  0  0  0  0
    9.4400    0.6780   24.2510 C   0  0  0  0  0
    9.8880    1.9150   23.8390 C   0  0  0  0  0
    9.5050    3.0280   24.5500 C   0  0  0  0  0
    8.6900    2.9550   25.6560 C   0  0  0  0  0
    8.2410    1.7030   26.0610 C   0  0  0  0  0
    8.1680   -0.7360   25.7880 C   0  3  0  0  0
    7.5160   -0.8470   26.9160 N   0  0  0  0  0
    8.4100   -1.7900   25.0590 N   0  0  0  0  0
   10.0240    4.1440   24.0940 N   0  0  0  0  0
    9.5920    5.3670   24.3100 C   0  0  0  0  0
    8.6100    5.6680   24.9770 O   0  0  0  0  0
   10.3990    6.3420   23.6500 C   0  0  0  0  0
    9.9210    7.6630   23.6150 C   0  0  0  0  0
   10.6100    8.6750   22.9700 C   0  0  0  0  0
   11.8340    8.4290   22.3750 C   0  0  0  0  0
   12.3510    7.1460   22.3840 C   0  0  0  0  0
   11.6740    6.1070   23.0230 C   0  0  0  0  0
   12.3300    4.8830   22.9660 O   0  0  0  0  0
 16  1  1  0  0  0
 17  2  1  0  0  0
 19  3  1  0  0  0
 20  4  1  0  0  0
 22  5  1  0  0  0
 22  6  1  0  0  0
 23  7  1  0  0  0
 23  8  1  0  0  0
 24  9  1  0  0  0
 28 10  1  0  0  0
 29 11  1  0  0  0
 30 12  1  0  0  0
 31 13  1  0  0  0
 33 14  1  0  0  0
 21 15  1  0  0  0
 15 20  4  0  0  0
 15 16  4  0  0  0
 16 17  4  0  0  0
 17 18  4  0  0  0
 18 24  1  0  0  0
 19 18  4  0  0  0
 20 19  4  0  0  0
 24 25  1  0  0  0
 25 27  1  0  0  0
 25 26  2  0  0  0
 27 32  4  0  0  0
 27 28  4  0  0  0
 28 29  4  0  0  0
 29 30  4  0  0  0
 31 30  4  0  0  0
 32 31  4  0  0  0
 32 33  1  0  0  0
 21 23  1  0  0  0
 21 22  1  0  0  0
M  END
$$$$
