1r6n_ligand
  -I-interpret- 

 59 64  0  0  0  0  0  0  0  0999 V2000
   54.7630    3.8610    2.5120 C   0  0  0  0  0
   55.2350    3.4530    3.9070 C   0  0  0  0  0
   55.5630    4.8430    1.8900 O   0  0  0  0  0
   54.8600    5.3850    0.7940 C   0  0  0  0  0
   53.4010    4.9130    0.8810 C   0  0  0  0  0
   53.3280    4.3140    2.2830 C   0  0  0  0  0
   55.0730    6.8780    0.8480 C   0  0  0  0  0
   55.8120    7.2950   -0.3460 C   0  0  0  0  0
   54.6930    7.6050    1.7350 O   0  0  0  0  0
   55.5260    4.9840   -0.4890 C   0  0  0  0  0
   55.5990    3.8600   -0.9290 O   0  0  0  0  0
   56.2280    8.5840   -0.7190 C   0  0  0  0  0
   56.9380    8.7080   -1.9340 C   0  0  0  0  0
   57.2090    7.5780   -2.7280 C   0  0  0  0  0
   56.7760    6.2900   -2.3270 C   0  0  0  0  0
   56.0790    6.1840   -1.1300 C   0  0  0  0  0
   52.3520    5.9820    0.5590 C   0  0  0  0  0
   51.2460    6.0980    1.0650 O   0  0  0  0  0
   52.7500    6.7900   -0.3170 O   0  5  0  0  0
   52.6750    4.9780    3.4900 C   0  0  0  0  0
   51.8010    4.5150    4.1830 O   0  0  0  0  0
   53.2620    6.2280    3.6630 N   0  0  0  0  0
   52.7790    7.1330    4.6580 C   0  0  0  0  0
   52.9590    8.5110    4.5000 C   0  0  0  0  0
   52.5000    9.4070    5.4570 C   0  0  0  0  0
   51.8440    8.9530    6.6110 C   0  0  0  0  0
   51.3800    9.9250    7.6070 C   0  0  0  0  0
   51.6600    7.5650    6.7720 C   0  0  0  0  0
   52.1200    6.6700    5.8100 C   0  0  0  0  0
   50.1720   10.5690    7.4770 N   0  0  0  0  0
   50.0220   11.3840    8.5190 N   0  0  0  0  0
   51.2400   11.4140    9.6270 S   0  0  0  0  0
   52.0980   10.2730    8.7360 C   0  0  0  0  0
   56.5740    3.6450    4.3040 C   0  0  0  0  0
   57.0150    3.2700    5.5830 C   0  0  0  0  0
   56.0970    2.6830    6.5090 C   0  0  0  0  0
   54.7620    2.4910    6.1140 C   0  0  0  0  0
   54.3340    2.8680    4.8360 C   0  0  0  0  0
   57.4210   10.0920   -2.3970 C   0  0  0  0  0
   58.6500    3.5330    5.9850 Cl  0  0  0  0  0
   56.5820    2.2110    8.0870 Cl  0  0  0  0  0
   54.8765    2.9409    1.9199 H   0  0  0  0  0
   53.2487    4.1063    0.1488 H   0  0  0  0  0
   52.7236    3.4029    2.1621 H   0  0  0  0  0
   56.0131    9.4476   -0.1001 H   0  0  0  0  0
   57.7553    7.6945   -3.6570 H   0  0  0  0  0
   56.9818    5.4160   -2.9343 H   0  0  0  0  0
   54.0316    6.4963    3.0836 H   0  0  0  0  0
   53.4644    8.8855    3.6172 H   0  0  0  0  0
   52.6506   10.4704    5.3103 H   0  0  0  0  0
   51.1547    7.1902    7.6547 H   0  0  0  0  0
   51.9685    5.6059    5.9507 H   0  0  0  0  0
   53.0678    9.8713    9.0066 H   0  0  0  0  0
   57.2762    4.0905    3.6087 H   0  0  0  0  0
   54.0564    2.0463    6.8064 H   0  0  0  0  0
   53.2999    2.7113    4.5511 H   0  0  0  0  0
   57.1224   10.8505   -1.6584 H   0  0  0  0  0
   56.9694   10.3310   -3.3711 H   0  0  0  0  0
   58.5168   10.0849   -2.4927 H   0  0  0  0  0
  1  2  1  0  0  0
  1  3  1  0  0  0
  1  6  1  0  0  0
  2 34  4  0  0  0
  2 38  4  0  0  0
  3  4  1  0  0  0
  4  5  1  0  0  0
  4  7  1  0  0  0
  4 10  1  0  0  0
  5  6  1  0  0  0
  5 17  1  0  0  0
  6 20  1  0  0  0
  7  8  1  0  0  0
  7  9  2  0  0  0
  8 12  4  0  0  0
  8 16  4  0  0  0
 10 11  2  0  0  0
 10 16  1  0  0  0
 12 13  4  0  0  0
 13 14  4  0  0  0
 13 39  1  0  0  0
 14 15  4  0  0  0
 15 16  4  0  0  0
 17 18  2  0  0  0
 17 19  1  0  0  0
 20 21  2  0  0  0
 20 22  1  0  0  0
 22 23  1  0  0  0
 23 24  4  0  0  0
 23 29  4  0  0  0
 24 25  4  0  0  0
 25 26  4  0  0  0
 26 27  1  0  0  0
 26 28  4  0  0  0
 27 30  4  0  0  0
 27 33  4  0  0  0
 28 29  4  0  0  0
 30 31  4  0  0  0
 31 32  1  0  0  0
 32 33  1  0  0  0
 34 35  4  0  0  0
 35 36  4  0  0  0
 35 40  1  0  0  0
 36 37  4  0  0  0
 36 41  1  0  0  0
 37 38  4  0  0  0
  1 42  1  0  0  0
  5 43  1  0  0  0
  6 44  1  0  0  0
 12 45  1  0  0  0
 14 46  1  0  0  0
 15 47  1  0  0  0
 22 48  1  0  0  0
 24 49  1  0  0  0
 25 50  1  0  0  0
 28 51  1  0  0  0
 29 52  1  0  0  0
 33 53  1  0  0  0
 34 54  1  0  0  0
 37 55  1  0  0  0
 38 56  1  0  0  0
 39 57  1  0  0  0
 39 58  1  0  0  0
 39 59  1  0  0  0
M  END
$$$$
