2h6q_ligand
  -I-interpret- 

123122  0  0  0  0  0  0  0  0999 V2000
    4.7450    6.1730   46.0520 N   0  3  0  0  0
    6.1310    5.6240   46.0130 C   0  0  0  0  0
    6.7390    5.7210   44.6130 C   0  0  0  0  0
    7.9440    5.9280   44.4790 O   0  0  0  0  0
    6.1450    4.1690   46.4950 C   0  0  0  0  0
    5.9150    5.5830   43.5710 N   0  0  0  0  0
    6.4470    5.5700   42.2080 C   0  0  0  0  0
    7.2030    6.8570   41.8530 C   0  0  0  0  0
    8.1140    6.8360   41.0350 O   0  0  0  0  0
    5.3430    5.3070   41.1750 C   0  0  0  0  0
    5.9150    5.0820   39.7630 C   0  0  0  0  0
    4.8320    4.7980   38.7220 C   0  0  0  0  0
    4.0240    3.6160   39.0380 N   0  0  0  0  0
    4.2430    2.3860   38.5520 C   0  3  0  0  0
    5.2710    2.1360   37.7180 N   0  0  0  0  0
    3.4250    1.3950   38.8950 N   0  0  0  0  0
    6.8320    7.9670   42.4710 N   0  0  0  0  0
    7.4010    9.2700   42.0740 C   0  0  0  0  0
    8.7180    9.6170   42.7900 C   0  0  0  0  0
    9.3070   10.6880   42.5570 O   0  0  0  0  0
    6.3730   10.4180   42.2530 C   0  0  0  0  0
    6.0790   10.5510   43.6360 O   0  0  0  0  0
    5.0590   10.1550   41.4750 C   0  0  0  0  0
    9.1810    8.7170   43.6520 N   0  0  0  0  0
   10.5230    8.8330   44.2560 C   0  0  0  0  0
   10.3560    8.8710   45.7660 C   0  0  0  0  0
    9.5100   10.0750   46.1800 C   0  0  0  0  0
   10.1750   11.4040   45.8040 C   0  0  0  0  0
    9.3280   12.5920   46.2880 C   0  0  0  0  0
    9.6800   13.8800   45.6510 N   0  3  0  0  0
   11.3990    7.6700   43.8530 C   0  0  0  0  0
   10.9030    6.6800   43.3130 O   0  0  0  0  0
   11.1380   14.1480   45.6860 C   0  0  0  0  0
    9.0180   14.9920   46.3650 C   0  0  0  0  0
    9.2100   13.8320   44.2500 C   0  0  0  0  0
   12.7010    7.7490   44.1080 N   0  0  0  0  0
   13.5880    6.6510   43.7410 C   0  0  0  0  0
   13.6950    5.7300   44.9340 C   0  0  0  0  0
   14.0650    6.1740   46.0270 O   0  0  0  0  0
   14.9750    7.1570   43.3600 C   0  0  0  0  0
   14.9850    8.2540   42.3570 C   0  0  0  0  0
   16.3520    8.8710   42.1940 C   0  0  0  0  0
   17.3770    8.2090   42.3850 O   0  0  0  0  0
   16.3800   10.1540   41.8390 N   0  0  0  0  0
   13.3410    4.4640   44.7320 N   0  0  0  0  0
   13.2960    3.4770   45.8190 C   0  0  0  0  0
   14.1430    2.2340   45.5340 C   0  0  0  0  0
   14.1720    1.2840   46.3320 O   0  0  0  0  0
   11.8400    3.0390   46.0960 C   0  0  0  0  0
   11.2400    2.6010   44.8670 O   0  0  0  0  0
   11.0160    4.2070   46.6770 C   0  0  0  0  0
   14.8340    2.2350   44.4030 N   0  0  0  0  0
   15.5700    1.0530   43.9860 C   0  0  0  0  0
   17.0200    1.1680   44.4200 C   0  0  0  0  0
   17.4420    2.2700   44.7820 O   0  0  0  0  0
   15.4700    0.8750   42.4980 C   0  0  0  0  0
    4.7545    7.1403   45.7285 H   0  0  0  0  0
    4.1429    5.6163   45.4454 H   0  0  0  0  0
    4.3929    6.1366   47.0086 H   0  0  0  0  0
    6.7413    6.2284   46.6841 H   0  0  0  0  0
    5.5625    3.5545   45.8085 H   0  0  0  0  0
    7.1729    3.8075   46.5254 H   0  0  0  0  0
    5.7095    4.1139   47.4927 H   0  0  0  0  0
    4.9115    5.4863   43.7259 H   0  0  0  0  0
    7.1634    4.7491   42.1752 H   0  0  0  0  0
    4.6912    6.1801   41.1433 H   0  0  0  0  0
    4.8058    4.4064   41.4724 H   0  0  0  0  0
    6.5733    4.2142   39.8044 H   0  0  0  0  0
    6.4337    5.9930   39.4644 H   0  0  0  0  0
    5.3291    4.6137   37.7696 H   0  0  0  0  0
    4.1634    5.6585   38.6973 H   0  0  0  0  0
    3.2368    3.7387   39.6749 H   0  0  0  0  0
    5.9010    2.8902   37.4447 H   0  0  0  0  0
    5.4194    1.1925   37.3599 H   0  0  0  0  0
    2.6407    1.5749   39.5218 H   0  0  0  0  0
    3.5820    0.4551   38.5313 H   0  0  0  0  0
    6.1484    7.9218   43.2266 H   0  0  0  0  0
    7.6404    9.1668   41.0156 H   0  0  0  0  0
    6.8125   11.3321   41.8538 H   0  0  0  0  0
    5.4430   11.2593   43.7601 H   0  0  0  0  0
    5.2803   10.0611   40.4118 H   0  0  0  0  0
    4.6032    9.2328   41.8354 H   0  0  0  0  0
    4.3724   10.9868   41.6324 H   0  0  0  0  0
    8.5918    7.9232   43.9033 H   0  0  0  0  0
   11.0086    9.7434   43.9047 H   0  0  0  0  0
   11.3392    8.9525   46.2294 H   0  0  0  0  0
    9.8563    7.9583   46.0904 H   0  0  0  0  0
    9.3897   10.0496   47.2630 H   0  0  0  0  0
    8.5542   10.0139   45.6595 H   0  0  0  0  0
   10.2683   11.4567   44.7193 H   0  0  0  0  0
   11.1552   11.4539   46.2782 H   0  0  0  0  0
    9.5050   12.7011   47.3580 H   0  0  0  0  0
    8.2910   12.3763   46.0305 H   0  0  0  0  0
   11.4753   14.1808   46.7220 H   0  0  0  0  0
   11.6648   13.3545   45.1559 H   0  0  0  0  0
   11.3418   15.1050   45.2057 H   0  0  0  0  0
    7.9374   14.8547   46.3265 H   0  0  0  0  0
    9.3474   15.0022   47.4040 H   0  0  0  0  0
    9.2827   15.9363   45.8893 H   0  0  0  0  0
    9.6985   13.0065   43.7323 H   0  0  0  0  0
    8.1302   13.6838   44.2352 H   0  0  0  0  0
    9.4560   14.7705   43.7532 H   0  0  0  0  0
   13.0809    8.5798   44.5616 H   0  0  0  0  0
   13.1803    6.1306   42.8743 H   0  0  0  0  0
   15.5071    6.3164   42.9146 H   0  0  0  0  0
   15.4271    7.5549   44.2685 H   0  0  0  0  0
   14.3026    9.0315   42.7005 H   0  0  0  0  0
   14.6870    7.8351   41.3958 H   0  0  0  0  0
   17.2738   10.6292   41.7142 H   0  0  0  0  0
   15.5076   10.6616   41.6919 H   0  0  0  0  0
   13.0918    4.1678   43.7883 H   0  0  0  0  0
   13.7157    3.9731   46.6941 H   0  0  0  0  0
   11.8508    2.2270   46.8231 H   0  0  0  0  0
   10.3349    2.3277   45.0337 H   0  0  0  0  0
   11.4673    4.5384   47.6122 H   0  0  0  0  0
   11.0053    5.0321   45.9648 H   0  0  0  0  0
    9.9953    3.8727   46.8630 H   0  0  0  0  0
   14.8494    3.0721   43.8204 H   0  0  0  0  0
   15.1342    0.1748   44.4624 H   0  0  0  0  0
   17.7764    0.1604   44.4109 O   0  5  0  0  0
   14.4232    0.7609   42.2165 H   0  0  0  0  0
   15.8883    1.7496   41.9998 H   0  0  0  0  0
   16.0263   -0.0143   42.2015 H   0  0  0  0  0
  1  2  1  0  0  0
  2  3  1  0  0  0
  2  5  1  0  0  0
  3  4  2  0  0  0
  3  6  1  0  0  0
  6  7  1  0  0  0
  7  8  1  0  0  0
  7 10  1  0  0  0
  8  9  2  0  0  0
  8 17  1  0  0  0
 10 11  1  0  0  0
 11 12  1  0  0  0
 12 13  1  0  0  0
 13 14  1  0  0  0
 14 15  1  0  0  0
 14 16  1  0  0  0
 17 18  1  0  0  0
 18 19  1  0  0  0
 18 21  1  0  0  0
 19 20  2  0  0  0
 19 24  1  0  0  0
 21 22  1  0  0  0
 21 23  1  0  0  0
 24 25  1  0  0  0
 25 26  1  0  0  0
 25 31  1  0  0  0
 26 27  1  0  0  0
 27 28  1  0  0  0
 28 29  1  0  0  0
 29 30  1  0  0  0
 30 33  1  0  0  0
 30 34  1  0  0  0
 30 35  1  0  0  0
 31 32  2  0  0  0
 31 36  1  0  0  0
 36 37  1  0  0  0
 37 38  1  0  0  0
 37 40  1  0  0  0
 38 39  2  0  0  0
 38 45  1  0  0  0
 40 41  1  0  0  0
 41 42  1  0  0  0
 42 43  2  0  0  0
 42 44  1  0  0  0
 45 46  1  0  0  0
 46 47  1  0  0  0
 46 49  1  0  0  0
 47 48  2  0  0  0
 47 52  1  0  0  0
 49 50  1  0  0  0
 49 51  1  0  0  0
 52 53  1  0  0  0
 53 54  1  0  0  0
 53 56  1  0  0  0
 54 55  2  0  0  0
  1 57  1  0  0  0
  1 58  1  0  0  0
  1 59  1  0  0  0
  2 60  1  0  0  0
  5 61  1  0  0  0
  5 62  1  0  0  0
  5 63  1  0  0  0
  6 64  1  0  0  0
  7 65  1  0  0  0
 10 66  1  0  0  0
 10 67  1  0  0  0
 11 68  1  0  0  0
 11 69  1  0  0  0
 12 70  1  0  0  0
 12 71  1  0  0  0
 13 72  1  0  0  0
 15 73  1  0  0  0
 15 74  1  0  0  0
 16 75  1  0  0  0
 16 76  1  0  0  0
 17 77  1  0  0  0
 18 78  1  0  0  0
 21 79  1  0  0  0
 22 80  1  0  0  0
 23 81  1  0  0  0
 23 82  1  0  0  0
 23 83  1  0  0  0
 24 84  1  0  0  0
 25 85  1  0  0  0
 26 86  1  0  0  0
 26 87  1  0  0  0
 27 88  1  0  0  0
 27 89  1  0  0  0
 28 90  1  0  0  0
 28 91  1  0  0  0
 29 92  1  0  0  0
 29 93  1  0  0  0
 33 94  1  0  0  0
 33 95  1  0  0  0
 33 96  1  0  0  0
 34 97  1  0  0  0
 34 98  1  0  0  0
 34 99  1  0  0  0
 35100  1  0  0  0
 35101  1  0  0  0
 35102  1  0  0  0
 36103  1  0  0  0
 37104  1  0  0  0
 40105  1  0  0  0
 40106  1  0  0  0
 41107  1  0  0  0
 41108  1  0  0  0
 44109  1  0  0  0
 44110  1  0  0  0
 45111  1  0  0  0
 46112  1  0  0  0
 49113  1  0  0  0
 50114  1  0  0  0
 51115  1  0  0  0
 51116  1  0  0  0
 51117  1  0  0  0
 52118  1  0  0  0
 53119  1  0  0  0
 54120  1  0  0  0
 56121  1  0  0  0
 56122  1  0  0  0
 56123  1  0  0  0
M  END
$$$$
