### 
### Created by X-TOOL on Sun Jun  3 12:43:04 2007
### 

@<TRIPOS>MOLECULE
2h6q_ligand
  123   122     1     0     0
SMALL
GAST_HUCK


@<TRIPOS>ATOM
      1 N           4.7450    6.1730   46.0520 N.4       1 SUB1        0.238
      2 CA          6.1310    5.6240   46.0130 C.3       1 SUB1        0.062
      3 C           6.7390    5.7210   44.6130 C.2       1 SUB1        0.226
      4 O           7.9440    5.9280   44.4790 O.2       1 SUB1       -0.391
      5 CB          6.1450    4.1690   46.4950 C.3       1 SUB1       -0.004
      6 N           5.9150    5.5830   43.5710 N.am      1 SUB1       -0.261
      7 CA          6.4470    5.5700   42.2080 C.3       1 SUB1        0.131
      8 C           7.2030    6.8570   41.8530 C.2       1 SUB1        0.204
      9 O           8.1140    6.8360   41.0350 O.2       1 SUB1       -0.394
     10 CB          5.3430    5.3070   41.1750 C.3       1 SUB1       -0.009
     11 CG          5.9150    5.0820   39.7630 C.3       1 SUB1       -0.016
     12 CD          4.8320    4.7980   38.7220 C.3       1 SUB1        0.063
     13 NE          4.0240    3.6160   39.0380 N.pl3     1 SUB1       -0.272
     14 CZ          4.2430    2.3860   38.5520 C.cat     1 SUB1        0.288
     15 NH1         5.2710    2.1360   37.7180 N.pl3     1 SUB1       -0.285
     16 NH2         3.4250    1.3950   38.8950 N.pl3     1 SUB1       -0.285
     17 N           6.8320    7.9670   42.4710 N.am      1 SUB1       -0.261
     18 CA          7.4010    9.2700   42.0740 C.3       1 SUB1        0.156
     19 C           8.7180    9.6170   42.7900 C.2       1 SUB1        0.206
     20 O           9.3070   10.6880   42.5570 O.2       1 SUB1       -0.394
     21 CB          6.3730   10.4180   42.2530 C.3       1 SUB1        0.092
     22 OG1         6.0790   10.5510   43.6360 O.3       1 SUB1       -0.387
     23 CG2         5.0590   10.1550   41.4750 C.3       1 SUB1       -0.035
     24 N           9.1810    8.7170   43.6520 N.am      1 SUB1       -0.264
     25 CA         10.5230    8.8330   44.2560 C.3       1 SUB1        0.131
     26 CB         10.3560    8.8710   45.7660 C.3       1 SUB1       -0.012
     27 CG          9.5100   10.0750   46.1800 C.3       1 SUB1       -0.044
     28 CD         10.1750   11.4040   45.8040 C.3       1 SUB1       -0.012
     29 CE          9.3280   12.5920   46.2880 C.3       1 SUB1       -0.031
     30 NZ          9.6800   13.8800   45.6510 N.4       1 SUB1        0.237
     31 C          11.3990    7.6700   43.8530 C.2       1 SUB1        0.204
     32 O          10.9030    6.6800   43.3130 O.2       1 SUB1       -0.394
     33 CM1        11.1380   14.1480   45.6860 C.3       1 SUB1       -0.042
     34 CM2         9.0180   14.9920   46.3650 C.3       1 SUB1       -0.042
     35 CM3         9.2100   13.8320   44.2500 C.3       1 SUB1       -0.042
     36 N          12.7010    7.7490   44.1080 N.am      1 SUB1       -0.264
     37 CA         13.5880    6.6510   43.7410 C.3       1 SUB1        0.133
     38 C          13.6950    5.7300   44.9340 C.2       1 SUB1        0.204
     39 O          14.0650    6.1740   46.0270 O.2       1 SUB1       -0.394
     40 CB         14.9750    7.1570   43.3600 C.3       1 SUB1        0.004
     41 CG         14.9850    8.2540   42.3570 C.3       1 SUB1        0.041
     42 CD         16.3520    8.8710   42.1940 C.2       1 SUB1        0.174
     43 OE1        17.3770    8.2090   42.3850 O.2       1 SUB1       -0.397
     44 NE2        16.3800   10.1540   41.8390 N.am      1 SUB1       -0.301
     45 N          13.3410    4.4640   44.7320 N.am      1 SUB1       -0.261
     46 CA         13.2960    3.4770   45.8190 C.3       1 SUB1        0.156
     47 C          14.1430    2.2340   45.5340 C.2       1 SUB1        0.206
     48 O          14.1720    1.2840   46.3320 O.2       1 SUB1       -0.394
     49 CB         11.8400    3.0390   46.0960 C.3       1 SUB1        0.092
     50 OG1        11.2400    2.6010   44.8670 O.3       1 SUB1       -0.387
     51 CG2        11.0160    4.2070   46.6770 C.3       1 SUB1       -0.035
     52 N          14.8340    2.2350   44.4030 N.am      1 SUB1       -0.270
     53 CA         15.5700    1.0530   43.9860 C.3       1 SUB1        0.092
     54 C          17.0200    1.1680   44.4200 C.2       1 SUB1        0.060
     55 O          17.4420    2.2700   44.7820 O.co2     1 SUB1       -0.567
     56 CB         15.4700    0.8750   42.4980 C.3       1 SUB1       -0.030
     57 H           4.7545    7.1403   45.7285 H         1 SUB1        0.201
     58 H           4.1429    5.6163   45.4454 H         1 SUB1        0.201
     59 H           4.3929    6.1366   47.0086 H         1 SUB1        0.201
     60 H           6.7413    6.2284   46.6841 H         1 SUB1        0.109
     61 H           5.5625    3.5545   45.8085 H         1 SUB1        0.031
     62 H           7.1729    3.8075   46.5254 H         1 SUB1        0.031
     63 H           5.7095    4.1139   47.4927 H         1 SUB1        0.031
     64 H           4.9115    5.4863   43.7259 H         1 SUB1        0.188
     65 H           7.1634    4.7491   42.1752 H         1 SUB1        0.080
     66 H           4.6912    6.1801   41.1433 H         1 SUB1        0.031
     67 H           4.8058    4.4064   41.4724 H         1 SUB1        0.031
     68 H           6.5733    4.2142   39.8044 H         1 SUB1        0.030
     69 H           6.4337    5.9930   39.4644 H         1 SUB1        0.030
     70 H           5.3291    4.6137   37.7696 H         1 SUB1        0.069
     71 H           4.1634    5.6585   38.6973 H         1 SUB1        0.069
     72 H           3.2368    3.7387   39.6749 H         1 SUB1        0.264
     73 H           5.9010    2.8902   37.4447 H         1 SUB1        0.262
     74 H           5.4194    1.1925   37.3599 H         1 SUB1        0.262
     75 H           2.6407    1.5749   39.5218 H         1 SUB1        0.262
     76 H           3.5820    0.4551   38.5313 H         1 SUB1        0.262
     77 H           6.1484    7.9218   43.2266 H         1 SUB1        0.188
     78 H           7.6404    9.1668   41.0156 H         1 SUB1        0.083
     79 H           6.8125   11.3321   41.8538 H         1 SUB1        0.064
     80 H           5.4430   11.2593   43.7601 H         1 SUB1        0.210
     81 H           5.2803   10.0611   40.4118 H         1 SUB1        0.026
     82 H           4.6032    9.2328   41.8354 H         1 SUB1        0.026
     83 H           4.3724   10.9868   41.6324 H         1 SUB1        0.026
     84 H           8.5918    7.9232   43.9033 H         1 SUB1        0.188
     85 H          11.0086    9.7434   43.9047 H         1 SUB1        0.080
     86 H          11.3392    8.9525   46.2294 H         1 SUB1        0.031
     87 H           9.8563    7.9583   46.0904 H         1 SUB1        0.031
     88 H           9.3897   10.0496   47.2630 H         1 SUB1        0.027
     89 H           8.5542   10.0139   45.6595 H         1 SUB1        0.027
     90 H          10.2683   11.4567   44.7193 H         1 SUB1        0.032
     91 H          11.1552   11.4539   46.2782 H         1 SUB1        0.032
     92 H           9.5050   12.7011   47.3580 H         1 SUB1        0.082
     93 H           8.2910   12.3763   46.0305 H         1 SUB1        0.082
     94 H          11.4753   14.1808   46.7220 H         1 SUB1        0.078
     95 H          11.6648   13.3545   45.1559 H         1 SUB1        0.078
     96 H          11.3418   15.1050   45.2057 H         1 SUB1        0.078
     97 H           7.9374   14.8547   46.3265 H         1 SUB1        0.078
     98 H           9.3474   15.0022   47.4040 H         1 SUB1        0.078
     99 H           9.2827   15.9363   45.8893 H         1 SUB1        0.078
    100 H           9.6985   13.0065   43.7323 H         1 SUB1        0.078
    101 H           8.1302   13.6838   44.2352 H         1 SUB1        0.078
    102 H           9.4560   14.7705   43.7532 H         1 SUB1        0.078
    103 H          13.0809    8.5798   44.5616 H         1 SUB1        0.188
    104 H          13.1803    6.1306   42.8743 H         1 SUB1        0.080
    105 H          15.5071    6.3164   42.9146 H         1 SUB1        0.034
    106 H          15.4271    7.5549   44.2685 H         1 SUB1        0.034
    107 H          14.3026    9.0315   42.7005 H         1 SUB1        0.050
    108 H          14.6870    7.8351   41.3958 H         1 SUB1        0.050
    109 H          17.2738   10.6292   41.7142 H         1 SUB1        0.181
    110 H          15.5076   10.6616   41.6919 H         1 SUB1        0.181
    111 H          13.0918    4.1678   43.7883 H         1 SUB1        0.188
    112 H          13.7157    3.9731   46.6941 H         1 SUB1        0.083
    113 H          11.8508    2.2270   46.8231 H         1 SUB1        0.064
    114 H          10.3349    2.3277   45.0337 H         1 SUB1        0.210
    115 H          11.4673    4.5384   47.6122 H         1 SUB1        0.026
    116 H          11.0053    5.0321   45.9648 H         1 SUB1        0.026
    117 H           9.9953    3.8727   46.8630 H         1 SUB1        0.026
    118 H          14.8494    3.0721   43.8204 H         1 SUB1        0.188
    119 H          15.1342    0.1748   44.4624 H         1 SUB1        0.072
    120 O1         17.7764    0.1604   44.4109 O.co2     1 SUB1       -0.567
    121 H          14.4232    0.7609   42.2165 H         1 SUB1        0.027
    122 H          15.8883    1.7496   41.9998 H         1 SUB1        0.027
    123 H          16.0263   -0.0143   42.2015 H         1 SUB1        0.027
@<TRIPOS>BOND
     1    1    2 1  
     2    2    3 1  
     3    2    5 1  
     4    3    4 2  
     5    3    6 am 
     6    6    7 1  
     7    7    8 1  
     8    7   10 1  
     9    8    9 2  
    10    8   17 am 
    11   10   11 1  
    12   11   12 1  
    13   12   13 1  
    14   13   14 1  
    15   14   15 1  
    16   14   16 1  
    17   17   18 1  
    18   18   19 1  
    19   18   21 1  
    20   19   20 2  
    21   19   24 am 
    22   21   22 1  
    23   21   23 1  
    24   24   25 1  
    25   25   26 1  
    26   25   31 1  
    27   26   27 1  
    28   27   28 1  
    29   28   29 1  
    30   29   30 1  
    31   30   33 1  
    32   30   34 1  
    33   30   35 1  
    34   31   32 2  
    35   31   36 am 
    36   36   37 1  
    37   37   38 1  
    38   37   40 1  
    39   38   39 2  
    40   38   45 am 
    41   40   41 1  
    42   41   42 1  
    43   42   43 2  
    44   42   44 am 
    45   45   46 1  
    46   46   47 1  
    47   46   49 1  
    48   47   48 2  
    49   47   52 am 
    50   49   50 1  
    51   49   51 1  
    52   52   53 1  
    53   53   54 1  
    54   53   56 1  
    55   54   55 ar 
    56    1   57 1  
    57    1   58 1  
    58    1   59 1  
    59    2   60 1  
    60    5   61 1  
    61    5   62 1  
    62    5   63 1  
    63    6   64 1  
    64    7   65 1  
    65   10   66 1  
    66   10   67 1  
    67   11   68 1  
    68   11   69 1  
    69   12   70 1  
    70   12   71 1  
    71   13   72 1  
    72   15   73 1  
    73   15   74 1  
    74   16   75 1  
    75   16   76 1  
    76   17   77 1  
    77   18   78 1  
    78   21   79 1  
    79   22   80 1  
    80   23   81 1  
    81   23   82 1  
    82   23   83 1  
    83   24   84 1  
    84   25   85 1  
    85   26   86 1  
    86   26   87 1  
    87   27   88 1  
    88   27   89 1  
    89   28   90 1  
    90   28   91 1  
    91   29   92 1  
    92   29   93 1  
    93   33   94 1  
    94   33   95 1  
    95   33   96 1  
    96   34   97 1  
    97   34   98 1  
    98   34   99 1  
    99   35  100 1  
   100   35  101 1  
   101   35  102 1  
   102   36  103 1  
   103   37  104 1  
   104   40  105 1  
   105   40  106 1  
   106   41  107 1  
   107   41  108 1  
   108   44  109 1  
   109   44  110 1  
   110   45  111 1  
   111   46  112 1  
   112   49  113 1  
   113   50  114 1  
   114   51  115 1  
   115   51  116 1  
   116   51  117 1  
   117   52  118 1  
   118   53  119 1  
   119   54  120 ar 
   120   56  121 1  
   121   56  122 1  
   122   56  123 1  
@<TRIPOS>SUBSTRUCTURE
     1 SUB1        1 GROUP

