### 
### Created by X-TOOL on Mon Oct 24 22:50:46 2005
### 

@<TRIPOS>MOLECULE
1imx_ligand
  135   138     1     0     0
SMALL
GAST_HUCK


@<TRIPOS>ATOM
      1 C1         18.4000   21.1850   25.7540 C.3       1 SUB1       -0.045
      2 C2         18.1220   20.0480   26.8330 C.3       1 SUB1       -0.026
      3 C3         18.9370   21.6810   28.8800 C.3       1 SUB1       -0.023
      4 C4         19.7810   21.8160   30.0490 C.3       1 SUB1        0.061
      5 C5         19.5180   20.6820   31.1570 C.3       1 SUB1        0.000
      6 C6         19.6990   19.2170   30.4710 C.3       1 SUB1       -0.030
      7 C7         19.5250   18.1760   31.5930 C.3       1 SUB1       -0.049
      8 C8         20.0400   18.8810   32.8230 C.3       1 SUB1       -0.049
      9 C9         20.4730   20.4200   32.3270 C.3       1 SUB1       -0.030
     10 C10        17.8670   20.9750   31.6680 C.3       1 SUB1       -0.057
     11 C11        16.4900   20.2510   27.4180 C.3       1 SUB1       -0.059
     12 C12        19.7780   21.0740   25.2000 C.3       1 SUB1       -0.026
     13 C13        20.0280   19.6670   24.5400 C.3       1 SUB1        0.056
     14 C14        19.7900   18.5260   25.5800 C.3       1 SUB1       -0.023
     15 C15        18.3780   18.5890   26.1590 C.3       1 SUB1       -0.033
     16 C16        18.1130   17.4510   27.2150 C.3       1 SUB1       -0.049
     17 C17        18.9690   17.6070   28.4690 C.3       1 SUB1       -0.049
     18 C18        18.8030   19.0610   29.1930 C.3       1 SUB1       -0.034
     19 C19        19.1110   20.2110   28.1770 C.3       1 SUB1       -0.030
     20 C20        20.3660   21.3290   33.5210 C.3       1 SUB1       -0.038
     21 C21        20.7120   22.9530   33.1410 C.3       1 SUB1       -0.062
     22 C22        21.4680   20.8120   34.6390 C.3       1 SUB1       -0.033
     23 C23        21.5780   21.5170   35.9920 C.3       1 SUB1        0.038
     24 O2         21.3840   19.5540   24.0090 O.3       1 SUB1       -0.392
     25 O4         21.1980   21.6850   29.5350 O.3       1 SUB1       -0.391
     26 C57        22.2590   22.9080   36.2390 C.2       1 SUB1        0.178
     27 N59        22.4090   23.5970   37.3940 N.am      1 SUB1       -0.273
     28 C74        23.1410   24.9730   37.2510 C.3       1 SUB1        0.036
     29 C75        22.9550   26.1210   38.4470 C.3       1 SUB1       -0.012
     30 C76        23.7660   27.4170   38.0110 C.3       1 SUB1        0.033
     31 N77        24.2290   27.9780   39.3140 N.am      1 SUB1       -0.285
     32 C78        24.0710   29.3220   39.7390 C.2       1 SUB1        0.208
     33 C80        24.6650   29.6540   41.1140 C.3       1 SUB1        0.172
     34 O86        25.2760   28.4430   41.6970 O.3       1 SUB1       -0.369
     35 C81        23.4600   30.3340   42.0150 C.3       1 SUB1        0.126
     36 O87        22.2190   29.5000   42.1750 O.3       1 SUB1       -0.384
     37 C82        24.0220   30.7340   43.4860 C.3       1 SUB1        0.114
     38 O88        24.4940   29.4820   44.1330 O.3       1 SUB1       -0.386
     39 C83        22.8920   31.4100   44.3890 C.3       1 SUB1        0.107
     40 O89        22.4400   32.6560   43.7170 O.3       1 SUB1       -0.387
     41 C84        23.4140   31.8180   45.8510 C.3       1 SUB1        0.073
     42 O85        22.3810   32.4470   46.7000 O.3       1 SUB1       -0.392
     43 O79        23.5060   30.2110   39.0650 O.2       1 SUB1       -0.394
     44 C68        22.0050   23.2760   38.7430 C.3       1 SUB1        0.036
     45 C69        20.4520   23.4480   39.0140 C.3       1 SUB1       -0.012
     46 C70        20.0430   23.1450   40.4330 C.3       1 SUB1        0.033
     47 N71        21.2230   22.7740   41.2260 N.am      1 SUB1       -0.285
     48 C72        21.2240   22.4530   42.4970 C.2       1 SUB1        0.208
     49 C90        22.6090   22.5290   43.1950 C.3       1 SUB1        0.172
     50 O96        22.6200   21.8310   44.4540 O.3       1 SUB1       -0.369
     51 C91        23.0400   24.0980   43.2640 C.3       1 SUB1        0.126
     52 O97        21.8450   24.9890   43.2630 O.3       1 SUB1       -0.384
     53 C92        23.9310   24.4970   44.5930 C.3       1 SUB1        0.114
     54 O98        23.7010   25.9380   44.8010 O.3       1 SUB1       -0.386
     55 C93        25.4770   24.1790   44.2840 C.3       1 SUB1        0.107
     56 O99        25.5570   22.7230   44.1190 O.3       1 SUB1       -0.387
     57 C94        26.5460   24.4800   45.4250 C.3       1 SUB1        0.073
     58 O95        27.8830   24.1100   44.9060 O.3       1 SUB1       -0.392
     59 O73        20.1840   22.0880   43.1050 O.2       1 SUB1       -0.394
     60 O58        22.6940   23.3910   35.2650 O.2       1 SUB1       -0.397
     61 H11        17.6826   21.0865   24.9260 H         1 SUB1        0.027
     62 H12        18.2932   22.1722   26.2273 H         1 SUB1        0.027
     63 H31        17.8844   21.8009   29.1758 H         1 SUB1        0.029
     64 H32        19.2098   22.4514   28.1438 H         1 SUB1        0.029
     65 H41        19.6395   22.8078   30.5031 H         1 SUB1        0.060
     66 H61        20.7334   19.1314   30.1069 H         1 SUB1        0.031
     67 H71        18.4668   17.9056   31.7237 H         1 SUB1        0.027
     68 H72        20.1210   17.2732   31.3936 H         1 SUB1        0.027
     69 H81        19.2549   18.9453   33.5907 H         1 SUB1        0.027
     70 H82        20.9198   18.3603   33.2290 H         1 SUB1        0.027
     71 H91        21.5136   20.4563   31.9724 H         1 SUB1        0.031
     72 H101       17.2435   21.1539   30.7796 H         1 SUB1        0.024
     73 H102       17.4797   20.0976   32.2065 H         1 SUB1        0.024
     74 H103       17.8272   21.8616   32.3179 H         1 SUB1        0.024
     75 H111       16.2784   19.4730   28.1662 H         1 SUB1        0.023
     76 H112       16.3803   21.2393   27.8882 H         1 SUB1        0.023
     77 H113       15.7779   20.1505   26.5857 H         1 SUB1        0.023
     78 H121       19.9237   21.8473   24.4315 H         1 SUB1        0.029
     79 H122       20.5077   21.2098   26.0118 H         1 SUB1        0.029
     80 H131       19.3273   19.5426   23.7013 H         1 SUB1        0.059
     81 H141       19.9209   17.5509   25.0882 H         1 SUB1        0.029
     82 H142       20.5093   18.6291   26.4058 H         1 SUB1        0.029
     83 H151       17.6595   18.4457   25.3385 H         1 SUB1        0.031
     84 H161       17.0556   17.4799   27.5168 H         1 SUB1        0.027
     85 H162       18.3468   16.4771   26.7602 H         1 SUB1        0.027
     86 H171       18.6792   16.8333   29.1952 H         1 SUB1        0.027
     87 H172       20.0271   17.4857   28.1939 H         1 SUB1        0.027
     88 H181       17.7524   19.1672   29.5011 H         1 SUB1        0.031
     89 H191       20.1581   20.1022   27.8580 H         1 SUB1        0.031
     90 H201       19.3543   21.2604   33.9472 H         1 SUB1        0.030
     91 H211       20.6166   23.5621   34.0520 H         1 SUB1        0.023
     92 H212       21.7401   23.0381   32.7593 H         1 SUB1        0.023
     93 H213       20.0005   23.3217   32.3875 H         1 SUB1        0.023
     94 H221       21.2359   19.7598   34.8602 H         1 SUB1        0.029
     95 H222       22.4617   20.8870   34.1733 H         1 SUB1        0.029
     96 H231       20.5449   21.6436   36.3479 H         1 SUB1        0.050
     97 H232       22.1183   20.8198   36.6492 H         1 SUB1        0.050
     98 H241       21.5336   20.2462   23.3757 H         1 SUB1        0.210
     99 H251       21.3589   22.3534   28.8793 H         1 SUB1        0.210
    100 H281       24.2193   24.7662   37.1839 H         1 SUB1        0.052
    101 H282       22.7893   25.4369   36.3177 H         1 SUB1        0.052
    102 H291       21.8923   26.3798   38.5633 H         1 SUB1        0.030
    103 H292       23.3559   25.7453   39.3999 H         1 SUB1        0.030
    104 H301       24.6262   27.1573   37.3765 H         1 SUB1        0.052
    105 H302       23.1195   28.1382   37.4896 H         1 SUB1        0.052
    106 H311       24.6909   27.3519   39.9422 H         1 SUB1        0.185
    107 H331       25.4549   30.4110   40.9999 H         1 SUB1        0.086
    108 H341       25.6424   28.6528   42.5479 H         1 SUB1        0.213
    109 H351       23.1656   31.2665   41.5113 H         1 SUB1        0.067
    110 H361       21.5877   29.9722   42.7051 H         1 SUB1        0.210
    111 H371       24.8534   31.4472   43.3857 H         1 SUB1        0.065
    112 H381       25.1830   29.0947   43.6059 H         1 SUB1        0.210
    113 H391       22.0519   30.7094   44.5045 H         1 SUB1        0.064
    114 H401       21.7662   33.0713   44.2424 H         1 SUB1        0.210
    115 H411       23.7661   30.9121   46.3660 H         1 SUB1        0.058
    116 H412       24.2420   32.5340   45.7434 H         1 SUB1        0.058
    117 H421       22.7558   32.6618   47.5461 H         1 SUB1        0.209
    118 H441       22.2661   22.2274   38.9483 H         1 SUB1        0.052
    119 H442       22.5411   23.9390   39.4380 H         1 SUB1        0.052
    120 H451       20.1689   24.4887   38.7980 H         1 SUB1        0.030
    121 H452       19.9002   22.7642   38.3523 H         1 SUB1        0.030
    122 H461       19.5794   24.0349   40.8835 H         1 SUB1        0.052
    123 H462       19.3318   22.3059   40.4430 H         1 SUB1        0.052
    124 H471       22.1044   22.7656   40.7538 H         1 SUB1        0.185
    125 H491       23.3474   22.0305   42.5499 H         1 SUB1        0.086
    126 H501       23.4822   21.9017   44.8465 H         1 SUB1        0.213
    127 H511       23.6536   24.3159   42.3775 H         1 SUB1        0.067
    128 H521       22.1270   25.8952   43.3038 H         1 SUB1        0.210
    129 H531       23.6164   23.9206   45.4755 H         1 SUB1        0.065
    130 H541       22.7746   26.0923   44.9440 H         1 SUB1        0.210
    131 H551       25.7807   24.7163   43.3735 H         1 SUB1        0.064
    132 H561       26.4551   22.4754   43.9330 H         1 SUB1        0.210
    133 H571       26.5388   25.5501   45.6796 H         1 SUB1        0.058
    134 H572       26.3253   23.8801   46.3201 H         1 SUB1        0.058
    135 H581       27.8905   23.1865   44.6832 H         1 SUB1        0.209
@<TRIPOS>BOND
     1    2    1 1  
     2    1   12 1  
     3    2   11 1  
     4    2   15 1  
     5   19    2 1  
     6    3    4 1  
     7   19    3 1  
     8    4    5 1  
     9    4   25 1  
    10    5    6 1  
    11    5    9 1  
    12    5   10 1  
    13    6    7 1  
    14    6   18 1  
    15    7    8 1  
    16    8    9 1  
    17    9   20 1  
    18   12   13 1  
    19   13   14 1  
    20   13   24 1  
    21   14   15 1  
    22   15   16 1  
    23   16   17 1  
    24   17   18 1  
    25   18   19 1  
    26   20   21 1  
    27   20   22 1  
    28   22   23 1  
    29   23   26 1  
    30   26   27 am 
    31   26   60 2  
    32   27   28 1  
    33   27   44 1  
    34   28   29 1  
    35   29   30 1  
    36   30   31 1  
    37   31   32 am 
    38   32   33 1  
    39   32   43 2  
    40   33   34 1  
    41   33   35 1  
    42   35   36 1  
    43   35   37 1  
    44   37   38 1  
    45   37   39 1  
    46   39   40 1  
    47   39   41 1  
    48   41   42 1  
    49   44   45 1  
    50   45   46 1  
    51   46   47 1  
    52   47   48 am 
    53   48   49 1  
    54   48   59 2  
    55   49   50 1  
    56   49   51 1  
    57   51   52 1  
    58   51   53 1  
    59   53   54 1  
    60   53   55 1  
    61   55   56 1  
    62   55   57 1  
    63   57   58 1  
    64    1   61 1  
    65    1   62 1  
    66    3   63 1  
    67    3   64 1  
    68    4   65 1  
    69    6   66 1  
    70    7   67 1  
    71    7   68 1  
    72    8   69 1  
    73    8   70 1  
    74    9   71 1  
    75   10   72 1  
    76   10   73 1  
    77   10   74 1  
    78   11   75 1  
    79   11   76 1  
    80   11   77 1  
    81   12   78 1  
    82   12   79 1  
    83   13   80 1  
    84   14   81 1  
    85   14   82 1  
    86   15   83 1  
    87   16   84 1  
    88   16   85 1  
    89   17   86 1  
    90   17   87 1  
    91   18   88 1  
    92   19   89 1  
    93   20   90 1  
    94   21   91 1  
    95   21   92 1  
    96   21   93 1  
    97   22   94 1  
    98   22   95 1  
    99   23   96 1  
   100   23   97 1  
   101   24   98 1  
   102   25   99 1  
   103   28  100 1  
   104   28  101 1  
   105   29  102 1  
   106   29  103 1  
   107   30  104 1  
   108   30  105 1  
   109   31  106 1  
   110   33  107 1  
   111   34  108 1  
   112   35  109 1  
   113   36  110 1  
   114   37  111 1  
   115   38  112 1  
   116   39  113 1  
   117   40  114 1  
   118   41  115 1  
   119   41  116 1  
   120   42  117 1  
   121   44  118 1  
   122   44  119 1  
   123   45  120 1  
   124   45  121 1  
   125   46  122 1  
   126   46  123 1  
   127   47  124 1  
   128   49  125 1  
   129   50  126 1  
   130   51  127 1  
   131   52  128 1  
   132   53  129 1  
   133   54  130 1  
   134   55  131 1  
   135   56  132 1  
   136   57  133 1  
   137   57  134 1  
   138   58  135 1  
@<TRIPOS>SUBSTRUCTURE
     1 SUB1        1 GROUP

