1imx_ligand
  -I-interpret- 

135138  0  0  0  0  0  0  0  0999 V2000
   18.4000   21.1850   25.7540 C   0  0  0  0  0
   18.1220   20.0480   26.8330 C   0  0  0  0  0
   18.9370   21.6810   28.8800 C   0  0  0  0  0
   19.7810   21.8160   30.0490 C   0  0  0  0  0
   19.5180   20.6820   31.1570 C   0  0  0  0  0
   19.6990   19.2170   30.4710 C   0  0  0  0  0
   19.5250   18.1760   31.5930 C   0  0  0  0  0
   20.0400   18.8810   32.8230 C   0  0  0  0  0
   20.4730   20.4200   32.3270 C   0  0  0  0  0
   17.8670   20.9750   31.6680 C   0  0  0  0  0
   16.4900   20.2510   27.4180 C   0  0  0  0  0
   19.7780   21.0740   25.2000 C   0  0  0  0  0
   20.0280   19.6670   24.5400 C   0  0  0  0  0
   19.7900   18.5260   25.5800 C   0  0  0  0  0
   18.3780   18.5890   26.1590 C   0  0  0  0  0
   18.1130   17.4510   27.2150 C   0  0  0  0  0
   18.9690   17.6070   28.4690 C   0  0  0  0  0
   18.8030   19.0610   29.1930 C   0  0  0  0  0
   19.1110   20.2110   28.1770 C   0  0  0  0  0
   20.3660   21.3290   33.5210 C   0  0  0  0  0
   20.7120   22.9530   33.1410 C   0  0  0  0  0
   21.4680   20.8120   34.6390 C   0  0  0  0  0
   21.5780   21.5170   35.9920 C   0  0  0  0  0
   21.3840   19.5540   24.0090 O   0  0  0  0  0
   21.1980   21.6850   29.5350 O   0  0  0  0  0
   22.2590   22.9080   36.2390 C   0  0  0  0  0
   22.4090   23.5970   37.3940 N   0  0  0  0  0
   23.1410   24.9730   37.2510 C   0  0  0  0  0
   22.9550   26.1210   38.4470 C   0  0  0  0  0
   23.7660   27.4170   38.0110 C   0  0  0  0  0
   24.2290   27.9780   39.3140 N   0  0  0  0  0
   24.0710   29.3220   39.7390 C   0  0  0  0  0
   24.6650   29.6540   41.1140 C   0  0  0  0  0
   25.2760   28.4430   41.6970 O   0  0  0  0  0
   23.4600   30.3340   42.0150 C   0  0  0  0  0
   22.2190   29.5000   42.1750 O   0  0  0  0  0
   24.0220   30.7340   43.4860 C   0  0  0  0  0
   24.4940   29.4820   44.1330 O   0  0  0  0  0
   22.8920   31.4100   44.3890 C   0  0  0  0  0
   22.4400   32.6560   43.7170 O   0  0  0  0  0
   23.4140   31.8180   45.8510 C   0  0  0  0  0
   22.3810   32.4470   46.7000 O   0  0  0  0  0
   23.5060   30.2110   39.0650 O   0  0  0  0  0
   22.0050   23.2760   38.7430 C   0  0  0  0  0
   20.4520   23.4480   39.0140 C   0  0  0  0  0
   20.0430   23.1450   40.4330 C   0  0  0  0  0
   21.2230   22.7740   41.2260 N   0  0  0  0  0
   21.2240   22.4530   42.4970 C   0  0  0  0  0
   22.6090   22.5290   43.1950 C   0  0  0  0  0
   22.6200   21.8310   44.4540 O   0  0  0  0  0
   23.0400   24.0980   43.2640 C   0  0  0  0  0
   21.8450   24.9890   43.2630 O   0  0  0  0  0
   23.9310   24.4970   44.5930 C   0  0  0  0  0
   23.7010   25.9380   44.8010 O   0  0  0  0  0
   25.4770   24.1790   44.2840 C   0  0  0  0  0
   25.5570   22.7230   44.1190 O   0  0  0  0  0
   26.5460   24.4800   45.4250 C   0  0  0  0  0
   27.8830   24.1100   44.9060 O   0  0  0  0  0
   20.1840   22.0880   43.1050 O   0  0  0  0  0
   22.6940   23.3910   35.2650 O   0  0  0  0  0
   17.6826   21.0865   24.9260 H   0  0  0  0  0
   18.2932   22.1722   26.2273 H   0  0  0  0  0
   17.8844   21.8009   29.1758 H   0  0  0  0  0
   19.2098   22.4514   28.1438 H   0  0  0  0  0
   19.6395   22.8078   30.5031 H   0  0  0  0  0
   20.7334   19.1314   30.1069 H   0  0  0  0  0
   18.4668   17.9056   31.7237 H   0  0  0  0  0
   20.1210   17.2732   31.3936 H   0  0  0  0  0
   19.2549   18.9453   33.5907 H   0  0  0  0  0
   20.9198   18.3603   33.2290 H   0  0  0  0  0
   21.5136   20.4563   31.9724 H   0  0  0  0  0
   17.2435   21.1539   30.7796 H   0  0  0  0  0
   17.4797   20.0976   32.2065 H   0  0  0  0  0
   17.8272   21.8616   32.3179 H   0  0  0  0  0
   16.2784   19.4730   28.1662 H   0  0  0  0  0
   16.3803   21.2393   27.8882 H   0  0  0  0  0
   15.7779   20.1505   26.5857 H   0  0  0  0  0
   19.9237   21.8473   24.4315 H   0  0  0  0  0
   20.5077   21.2098   26.0118 H   0  0  0  0  0
   19.3273   19.5426   23.7013 H   0  0  0  0  0
   19.9209   17.5509   25.0882 H   0  0  0  0  0
   20.5093   18.6291   26.4058 H   0  0  0  0  0
   17.6595   18.4457   25.3385 H   0  0  0  0  0
   17.0556   17.4799   27.5168 H   0  0  0  0  0
   18.3468   16.4771   26.7602 H   0  0  0  0  0
   18.6792   16.8333   29.1952 H   0  0  0  0  0
   20.0271   17.4857   28.1939 H   0  0  0  0  0
   17.7524   19.1672   29.5011 H   0  0  0  0  0
   20.1581   20.1022   27.8580 H   0  0  0  0  0
   19.3543   21.2604   33.9472 H   0  0  0  0  0
   20.6166   23.5621   34.0520 H   0  0  0  0  0
   21.7401   23.0381   32.7593 H   0  0  0  0  0
   20.0005   23.3217   32.3875 H   0  0  0  0  0
   21.2359   19.7598   34.8602 H   0  0  0  0  0
   22.4617   20.8870   34.1733 H   0  0  0  0  0
   20.5449   21.6436   36.3479 H   0  0  0  0  0
   22.1183   20.8198   36.6492 H   0  0  0  0  0
   21.5336   20.2462   23.3757 H   0  0  0  0  0
   21.3589   22.3534   28.8793 H   0  0  0  0  0
   24.2193   24.7662   37.1839 H   0  0  0  0  0
   22.7893   25.4369   36.3177 H   0  0  0  0  0
   21.8923   26.3798   38.5633 H   0  0  0  0  0
   23.3559   25.7453   39.3999 H   0  0  0  0  0
   24.6262   27.1573   37.3765 H   0  0  0  0  0
   23.1195   28.1382   37.4896 H   0  0  0  0  0
   24.6909   27.3519   39.9422 H   0  0  0  0  0
   25.4549   30.4110   40.9999 H   0  0  0  0  0
   25.6424   28.6528   42.5479 H   0  0  0  0  0
   23.1656   31.2665   41.5113 H   0  0  0  0  0
   21.5877   29.9722   42.7051 H   0  0  0  0  0
   24.8534   31.4472   43.3857 H   0  0  0  0  0
   25.1830   29.0947   43.6059 H   0  0  0  0  0
   22.0519   30.7094   44.5045 H   0  0  0  0  0
   21.7662   33.0713   44.2424 H   0  0  0  0  0
   23.7661   30.9121   46.3660 H   0  0  0  0  0
   24.2420   32.5340   45.7434 H   0  0  0  0  0
   22.7558   32.6618   47.5461 H   0  0  0  0  0
   22.2661   22.2274   38.9483 H   0  0  0  0  0
   22.5411   23.9390   39.4380 H   0  0  0  0  0
   20.1689   24.4887   38.7980 H   0  0  0  0  0
   19.9002   22.7642   38.3523 H   0  0  0  0  0
   19.5794   24.0349   40.8835 H   0  0  0  0  0
   19.3318   22.3059   40.4430 H   0  0  0  0  0
   22.1044   22.7656   40.7538 H   0  0  0  0  0
   23.3474   22.0305   42.5499 H   0  0  0  0  0
   23.4822   21.9017   44.8465 H   0  0  0  0  0
   23.6536   24.3159   42.3775 H   0  0  0  0  0
   22.1270   25.8952   43.3038 H   0  0  0  0  0
   23.6164   23.9206   45.4755 H   0  0  0  0  0
   22.7746   26.0923   44.9440 H   0  0  0  0  0
   25.7807   24.7163   43.3735 H   0  0  0  0  0
   26.4551   22.4754   43.9330 H   0  0  0  0  0
   26.5388   25.5501   45.6796 H   0  0  0  0  0
   26.3253   23.8801   46.3201 H   0  0  0  0  0
   27.8905   23.1865   44.6832 H   0  0  0  0  0
  2  1  1  0  0  0
  1 12  1  0  0  0
  2 11  1  0  0  0
  2 15  1  0  0  0
 19  2  1  0  0  0
  3  4  1  0  0  0
 19  3  1  0  0  0
  4  5  1  0  0  0
  4 25  1  0  0  0
  5  6  1  0  0  0
  5  9  1  0  0  0
  5 10  1  0  0  0
  6  7  1  0  0  0
  6 18  1  0  0  0
  7  8  1  0  0  0
  8  9  1  0  0  0
  9 20  1  0  0  0
 12 13  1  0  0  0
 13 14  1  0  0  0
 13 24  1  0  0  0
 14 15  1  0  0  0
 15 16  1  0  0  0
 16 17  1  0  0  0
 17 18  1  0  0  0
 18 19  1  0  0  0
 20 21  1  0  0  0
 20 22  1  0  0  0
 22 23  1  0  0  0
 23 26  1  0  0  0
 26 27  1  0  0  0
 26 60  2  0  0  0
 27 28  1  0  0  0
 27 44  1  0  0  0
 28 29  1  0  0  0
 29 30  1  0  0  0
 30 31  1  0  0  0
 31 32  1  0  0  0
 32 33  1  0  0  0
 32 43  2  0  0  0
 33 34  1  0  0  0
 33 35  1  0  0  0
 35 36  1  0  0  0
 35 37  1  0  0  0
 37 38  1  0  0  0
 37 39  1  0  0  0
 39 40  1  0  0  0
 39 41  1  0  0  0
 41 42  1  0  0  0
 44 45  1  0  0  0
 45 46  1  0  0  0
 46 47  1  0  0  0
 47 48  1  0  0  0
 48 49  1  0  0  0
 48 59  2  0  0  0
 49 50  1  0  0  0
 49 51  1  0  0  0
 51 52  1  0  0  0
 51 53  1  0  0  0
 53 54  1  0  0  0
 53 55  1  0  0  0
 55 56  1  0  0  0
 55 57  1  0  0  0
 57 58  1  0  0  0
  1 61  1  0  0  0
  1 62  1  0  0  0
  3 63  1  0  0  0
  3 64  1  0  0  0
  4 65  1  0  0  0
  6 66  1  0  0  0
  7 67  1  0  0  0
  7 68  1  0  0  0
  8 69  1  0  0  0
  8 70  1  0  0  0
  9 71  1  0  0  0
 10 72  1  0  0  0
 10 73  1  0  0  0
 10 74  1  0  0  0
 11 75  1  0  0  0
 11 76  1  0  0  0
 11 77  1  0  0  0
 12 78  1  0  0  0
 12 79  1  0  0  0
 13 80  1  0  0  0
 14 81  1  0  0  0
 14 82  1  0  0  0
 15 83  1  0  0  0
 16 84  1  0  0  0
 16 85  1  0  0  0
 17 86  1  0  0  0
 17 87  1  0  0  0
 18 88  1  0  0  0
 19 89  1  0  0  0
 20 90  1  0  0  0
 21 91  1  0  0  0
 21 92  1  0  0  0
 21 93  1  0  0  0
 22 94  1  0  0  0
 22 95  1  0  0  0
 23 96  1  0  0  0
 23 97  1  0  0  0
 24 98  1  0  0  0
 25 99  1  0  0  0
 28100  1  0  0  0
 28101  1  0  0  0
 29102  1  0  0  0
 29103  1  0  0  0
 30104  1  0  0  0
 30105  1  0  0  0
 31106  1  0  0  0
 33107  1  0  0  0
 34108  1  0  0  0
 35109  1  0  0  0
 36110  1  0  0  0
 37111  1  0  0  0
 38112  1  0  0  0
 39113  1  0  0  0
 40114  1  0  0  0
 41115  1  0  0  0
 41116  1  0  0  0
 42117  1  0  0  0
 44118  1  0  0  0
 44119  1  0  0  0
 45120  1  0  0  0
 45121  1  0  0  0
 46122  1  0  0  0
 46123  1  0  0  0
 47124  1  0  0  0
 49125  1  0  0  0
 50126  1  0  0  0
 51127  1  0  0  0
 52128  1  0  0  0
 53129  1  0  0  0
 54130  1  0  0  0
 55131  1  0  0  0
 56132  1  0  0  0
 57133  1  0  0  0
 57134  1  0  0  0
 58135  1  0  0  0
M  END
$$$$
