### 
### Created by X-TOOL on Tue Oct 25 00:24:56 2005
### 

@<TRIPOS>MOLECULE
1qf2_ligand
   52    54     1     0     0
SMALL
GAST_HUCK


@<TRIPOS>ATOM
      1 H21        35.5119   43.2060   -6.2265 H         1 SUB1        0.105
      2 SG         36.1630   42.4450   -6.1130 S.3       1 SUB1       -0.151
      3 CA1        36.8570   42.4760   -4.3810 C.3       1 SUB1        0.101
      4 CB1        35.7910   42.4910   -3.2890 C.3       1 SUB1        0.010
      5 CG1        36.3600   42.5880   -1.8980 C.ar      1 SUB1       -0.040
      6 CD1        37.0910   43.7140   -1.5100 C.ar      1 SUB1       -0.060
      7 CD2        36.1980   41.5450   -0.9900 C.ar      1 SUB1       -0.060
      8 CE1        37.6510   43.7920   -0.2420 C.ar      1 SUB1       -0.069
      9 CE2        36.7550   41.6130    0.2810 C.ar      1 SUB1       -0.069
     10 CZ1        37.4820   42.7320    0.6580 C.ar      1 SUB1       -0.069
     11 C1         37.8660   41.3970   -4.0130 C.2       1 SUB1        0.193
     12 O1         39.0490   41.6790   -3.8340 O.2       1 SUB1       -0.396
     13 N2         37.3580   40.1930   -3.7970 N.am      1 SUB1       -0.267
     14 CA2        38.2040   39.0630   -3.4860 C.3       1 SUB1        0.121
     15 C2         38.2310   38.2730   -4.7800 C.2       1 SUB1        0.206
     16 O2         37.3010   38.3880   -5.5820 O.2       1 SUB1       -0.394
     17 N3         39.2610   37.4550   -5.0190 N.am      1 SUB1       -0.241
     18 CD3        40.3860   37.0580   -4.1410 C.3       1 SUB1        0.083
     19 CA3        39.2670   36.7060   -6.2840 C.3       1 SUB1        0.087
     20 CB3        40.7070   36.2070   -6.3690 C.3       1 SUB1       -0.014
     21 CG3        41.0540   35.9540   -4.9460 C.3       1 SUB1       -0.014
     22 CG4        40.0020   36.5450   -2.7660 C.ar      1 SUB1       -0.017
     23 CD5        38.7600   35.9420   -2.5460 C.ar      1 SUB1       -0.058
     24 CD4        40.9070   36.6040   -1.7130 C.ar      1 SUB1       -0.058
     25 CE5        38.4290   35.4090   -1.3070 C.ar      1 SUB1       -0.068
     26 CE4        40.5880   36.0710   -0.4680 C.ar      1 SUB1       -0.068
     27 CZ3        39.3480   35.4720   -0.2650 C.ar      1 SUB1       -0.069
     28 C3         38.2320   35.5680   -6.3930 C.2       1 SUB1        0.054
     29 O3         37.8780   34.9710   -5.3490 O.co2     1 SUB1       -0.564
     30 OXT        37.7500   35.3150   -7.5250 O.co2     1 SUB1       -0.564
     31 H31        37.3957   43.4325   -4.3112 H         1 SUB1        0.067
     32 H41        35.2045   41.5633   -3.3617 H         1 SUB1        0.046
     33 H42        35.1320   43.3556   -3.4570 H         1 SUB1        0.046
     34 H61        37.2221   44.5347   -2.2060 H         1 SUB1        0.056
     35 H71        35.6297   40.6682   -1.2786 H         1 SUB1        0.056
     36 H81        38.2166   44.6694    0.0503 H         1 SUB1        0.060
     37 H91        36.6215   40.7926    0.9768 H         1 SUB1        0.060
     38 H101       37.9192   42.7864    1.6484 H         1 SUB1        0.056
     39 H131       36.3679   40.0630   -3.8502 H         1 SUB1        0.188
     40 H141       37.7753   38.4642   -2.6689 H         1 SUB1        0.076
     41 H142       39.2151   39.3941   -3.2066 H         1 SUB1        0.076
     42 H181       41.0682   37.9106   -4.0086 H         1 SUB1        0.072
     43 H191       39.0686   37.4019   -7.1125 H         1 SUB1        0.078
     44 H201       40.7715   35.2832   -6.9626 H         1 SUB1        0.033
     45 H202       41.3656   36.9712   -6.8073 H         1 SUB1        0.033
     46 H211       40.6756   34.9704   -4.6308 H         1 SUB1        0.031
     47 H212       42.1448   35.9886   -4.8080 H         1 SUB1        0.031
     48 H231       38.0426   35.8895   -3.3569 H         1 SUB1        0.056
     49 H241       41.8735   37.0711   -1.8635 H         1 SUB1        0.056
     50 H251       37.4606   34.9469   -1.1531 H         1 SUB1        0.060
     51 H261       41.3048   36.1222    0.3436 H         1 SUB1        0.060
     52 H271       39.0989   35.0551    0.7041 H         1 SUB1        0.056
@<TRIPOS>BOND
     1    2    3 1  
     2    3   11 1  
     3    3    4 1  
     4    4    5 1  
     5    5    7 ar 
     6    5    6 ar 
     7    6    8 ar 
     8    8   10 ar 
     9   10    9 ar 
    10    9    7 ar 
    11   11   13 am 
    12   11   12 2  
    13   13   14 1  
    14   14   15 1  
    15   15   17 am 
    16   15   16 2  
    17   17   19 1  
    18   17   18 1  
    19   18   22 1  
    20   18   21 1  
    21   21   20 1  
    22   20   19 1  
    23   19   28 1  
    24   28   30 2  
    25   28   29 2  
    26   22   24 ar 
    27   22   23 ar 
    28   23   25 ar 
    29   25   27 ar 
    30   27   26 ar 
    31   26   24 ar 
    32    2    1 1  
    33    3   31 1  
    34    4   32 1  
    35    4   33 1  
    36    6   34 1  
    37    7   35 1  
    38    8   36 1  
    39    9   37 1  
    40   10   38 1  
    41   13   39 1  
    42   14   40 1  
    43   14   41 1  
    44   18   42 1  
    45   19   43 1  
    46   20   44 1  
    47   20   45 1  
    48   21   46 1  
    49   21   47 1  
    50   23   48 1  
    51   24   49 1  
    52   25   50 1  
    53   26   51 1  
    54   27   52 1  
@<TRIPOS>SUBSTRUCTURE
     1 SUB1        1 GROUP

