1qf2_ligand
  -I-interpret- 

 52 54  0  0  0  0  0  0  0  0999 V2000
   35.5119   43.2060   -6.2265 H   0  0  0  0  0
   36.1630   42.4450   -6.1130 S   0  0  0  0  0
   36.8570   42.4760   -4.3810 C   0  0  0  0  0
   35.7910   42.4910   -3.2890 C   0  0  0  0  0
   36.3600   42.5880   -1.8980 C   0  0  0  0  0
   37.0910   43.7140   -1.5100 C   0  0  0  0  0
   36.1980   41.5450   -0.9900 C   0  0  0  0  0
   37.6510   43.7920   -0.2420 C   0  0  0  0  0
   36.7550   41.6130    0.2810 C   0  0  0  0  0
   37.4820   42.7320    0.6580 C   0  0  0  0  0
   37.8660   41.3970   -4.0130 C   0  0  0  0  0
   39.0490   41.6790   -3.8340 O   0  0  0  0  0
   37.3580   40.1930   -3.7970 N   0  0  0  0  0
   38.2040   39.0630   -3.4860 C   0  0  0  0  0
   38.2310   38.2730   -4.7800 C   0  0  0  0  0
   37.3010   38.3880   -5.5820 O   0  0  0  0  0
   39.2610   37.4550   -5.0190 N   0  0  0  0  0
   40.3860   37.0580   -4.1410 C   0  0  0  0  0
   39.2670   36.7060   -6.2840 C   0  0  0  0  0
   40.7070   36.2070   -6.3690 C   0  0  0  0  0
   41.0540   35.9540   -4.9460 C   0  0  0  0  0
   40.0020   36.5450   -2.7660 C   0  0  0  0  0
   38.7600   35.9420   -2.5460 C   0  0  0  0  0
   40.9070   36.6040   -1.7130 C   0  0  0  0  0
   38.4290   35.4090   -1.3070 C   0  0  0  0  0
   40.5880   36.0710   -0.4680 C   0  0  0  0  0
   39.3480   35.4720   -0.2650 C   0  0  0  0  0
   38.2320   35.5680   -6.3930 C   0  0  0  0  0
   37.8780   34.9710   -5.3490 O   0  0  0  0  0
   37.7500   35.3150   -7.5250 O   0  5  0  0  0
   37.3957   43.4325   -4.3112 H   0  0  0  0  0
   35.2045   41.5633   -3.3617 H   0  0  0  0  0
   35.1320   43.3556   -3.4570 H   0  0  0  0  0
   37.2221   44.5347   -2.2060 H   0  0  0  0  0
   35.6297   40.6682   -1.2786 H   0  0  0  0  0
   38.2166   44.6694    0.0503 H   0  0  0  0  0
   36.6215   40.7926    0.9768 H   0  0  0  0  0
   37.9192   42.7864    1.6484 H   0  0  0  0  0
   36.3679   40.0630   -3.8502 H   0  0  0  0  0
   37.7753   38.4642   -2.6689 H   0  0  0  0  0
   39.2151   39.3941   -3.2066 H   0  0  0  0  0
   41.0682   37.9106   -4.0086 H   0  0  0  0  0
   39.0686   37.4019   -7.1125 H   0  0  0  0  0
   40.7715   35.2832   -6.9626 H   0  0  0  0  0
   41.3656   36.9712   -6.8073 H   0  0  0  0  0
   40.6756   34.9704   -4.6308 H   0  0  0  0  0
   42.1448   35.9886   -4.8080 H   0  0  0  0  0
   38.0426   35.8895   -3.3569 H   0  0  0  0  0
   41.8735   37.0711   -1.8635 H   0  0  0  0  0
   37.4606   34.9469   -1.1531 H   0  0  0  0  0
   41.3048   36.1222    0.3436 H   0  0  0  0  0
   39.0989   35.0551    0.7041 H   0  0  0  0  0
  2  3  1  0  0  0
  3 11  1  0  0  0
  3  4  1  0  0  0
  4  5  1  0  0  0
  5  7  4  0  0  0
  5  6  4  0  0  0
  6  8  4  0  0  0
  8 10  4  0  0  0
 10  9  4  0  0  0
  9  7  4  0  0  0
 11 13  1  0  0  0
 11 12  2  0  0  0
 13 14  1  0  0  0
 14 15  1  0  0  0
 15 17  1  0  0  0
 15 16  2  0  0  0
 17 19  1  0  0  0
 17 18  1  0  0  0
 18 22  1  0  0  0
 18 21  1  0  0  0
 21 20  1  0  0  0
 20 19  1  0  0  0
 19 28  1  0  0  0
 28 30  1  0  0  0
 28 29  2  0  0  0
 22 24  4  0  0  0
 22 23  4  0  0  0
 23 25  4  0  0  0
 25 27  4  0  0  0
 27 26  4  0  0  0
 26 24  4  0  0  0
  2  1  1  0  0  0
  3 31  1  0  0  0
  4 32  1  0  0  0
  4 33  1  0  0  0
  6 34  1  0  0  0
  7 35  1  0  0  0
  8 36  1  0  0  0
  9 37  1  0  0  0
 10 38  1  0  0  0
 13 39  1  0  0  0
 14 40  1  0  0  0
 14 41  1  0  0  0
 18 42  1  0  0  0
 19 43  1  0  0  0
 20 44  1  0  0  0
 20 45  1  0  0  0
 21 46  1  0  0  0
 21 47  1  0  0  0
 23 48  1  0  0  0
 24 49  1  0  0  0
 25 50  1  0  0  0
 26 51  1  0  0  0
 27 52  1  0  0  0
M  END
$$$$
