1koj_ligand
  -I-interpret- 

 24 23  0  0  0  0  0  0  0  0999 V2000
   15.1411   10.0932   30.8589 H   0  0  0  0  0
   17.3858    9.7761   29.6380 H   0  0  0  0  0
   16.6212    7.2938   31.3833 H   0  0  0  0  0
   18.7793    7.0577   30.0184 H   0  0  0  0  0
   19.1512    7.2436   31.7659 H   0  0  0  0  0
   14.6177    7.5546   29.6551 H   0  0  0  0  0
   16.2948    7.1866   29.0780 H   0  0  0  0  0
   17.7321    9.8830   31.9901 H   0  0  0  0  0
   15.2540    9.3860   30.0240 C   0  0  0  0  0
   16.7450    8.9110   29.8640 C   0  0  0  0  0
   17.2440    8.1700   31.1500 C   0  0  0  0  0
   18.7240    7.7380   30.8810 C   0  0  0  0  0
   14.4710    8.2120   30.3250 O   0  0  0  0  0
   16.8370    7.9320   28.8480 O   0  0  0  0  0
   17.1740    9.1450   32.2050 O   0  0  0  0  0
   19.4430    9.0160   30.5920 O   0  0  0  0  0
   21.0030    8.6560   30.1980 P   0  0  0  0  0
   21.6880    7.8500   31.3090 O   0  5  0  0  0
   21.0310    7.7760   28.9630 O   0  0  0  0  0
   21.6590   10.0150   29.9210 O   0  5  0  0  0
   15.0160   10.1480   28.6760 C   0  0  0  0  0
   15.5090   11.1450   28.1610 O   0  0  0  0  0
   14.0610    9.5040   28.0320 N   0  0  0  0  0
   13.5610    9.9260   26.7310 O   0  0  0  0  0
  9  1  1  0  0  0
 10  2  1  0  0  0
 11  3  1  0  0  0
 12  4  1  0  0  0
 12  5  1  0  0  0
 13  6  1  0  0  0
 14  7  1  0  0  0
 15  8  1  0  0  0
  9 21  1  0  0  0
  9 13  1  0  0  0
 10  9  1  0  0  0
 10 14  1  0  0  0
 11 10  1  0  0  0
 11 15  1  0  0  0
 11 12  1  0  0  0
 12 16  1  0  0  0
 16 17  1  0  0  0
 17 20  1  0  0  0
 17 19  2  0  0  0
 17 18  1  0  0  0
 21 23  1  0  0  0
 21 22  2  0  0  0
 23 24  2  0  0  0
M  END
$$$$
