### 
### Created by X-TOOL on Mon Oct 24 23:08:51 2005
### 

@<TRIPOS>MOLECULE
1koj_ligand
   24    23     1     0     0
SMALL
GAST_HUCK


@<TRIPOS>ATOM
      1 H91        15.1411   10.0932   30.8589 H         1 SUB1        0.087
      2 H101       17.3858    9.7761   29.6380 H         1 SUB1        0.067
      3 H111       16.6212    7.2938   31.3833 H         1 SUB1        0.065
      4 H121       18.7793    7.0577   30.0184 H         1 SUB1        0.064
      5 H122       19.1512    7.2436   31.7659 H         1 SUB1        0.064
      6 H131       14.6177    7.5546   29.6551 H         1 SUB1        0.213
      7 H141       16.2948    7.1866   29.0780 H         1 SUB1        0.210
      8 H151       17.7321    9.8830   31.9901 H         1 SUB1        0.210
      9 C2         15.2540    9.3860   30.0240 C.3       1 SUB1        0.186
     10 C3         16.7450    8.9110   29.8640 C.3       1 SUB1        0.127
     11 C4         17.2440    8.1700   31.1500 C.3       1 SUB1        0.113
     12 C5         18.7240    7.7380   30.8810 C.3       1 SUB1        0.094
     13 O2         14.4710    8.2120   30.3250 O.3       1 SUB1       -0.368
     14 O3         16.8370    7.9320   28.8480 O.3       1 SUB1       -0.384
     15 O4         17.1740    9.1450   32.2050 O.3       1 SUB1       -0.386
     16 O5         19.4430    9.0160   30.5920 O.3       1 SUB1       -0.320
     17 P          21.0030    8.6560   30.1980 P.3       1 SUB1        0.205
     18 O1P        21.6880    7.8500   31.3090 O.co2     1 SUB1       -0.535
     19 O2P        21.0310    7.7760   28.9630 O.co2     1 SUB1       -0.535
     20 O3P        21.6590   10.0150   29.9210 O.co2     1 SUB1       -0.535
     21 C1         15.0160   10.1480   28.6760 C.2       1 SUB1        0.318
     22 O1         15.5090   11.1450   28.1610 O.2       1 SUB1       -0.325
     23 N          14.0610    9.5040   28.0320 N.2       1 SUB1        0.038
     24 ON1        13.5610    9.9260   26.7310 O.2       1 SUB1       -0.173
@<TRIPOS>BOND
     1    9    1 1  
     2   10    2 1  
     3   11    3 1  
     4   12    4 1  
     5   12    5 1  
     6   13    6 1  
     7   14    7 1  
     8   15    8 1  
     9    9   21 1  
    10    9   13 1  
    11   10    9 1  
    12   10   14 1  
    13   11   10 1  
    14   11   15 1  
    15   11   12 1  
    16   12   16 1  
    17   16   17 1  
    18   17   20 2  
    19   17   19 2  
    20   17   18 2  
    21   21   23 1  
    22   21   22 2  
    23   23   24 2  
@<TRIPOS>SUBSTRUCTURE
     1 SUB1        1 GROUP

