### 
### Created by X-TOOL on Tue Oct 25 01:37:36 2005
### 

@<TRIPOS>MOLECULE
1uw6_ligand
   26    27     1     0     0
SMALL
GAST_HUCK


@<TRIPOS>ATOM
      1 N1         81.7260   69.9810   -7.9430 N.ar      1 SUB1       -0.304
      2 C1         82.9260   69.9090   -8.6150 C.ar      1 SUB1        0.014
      3 C2         83.0690   69.2560   -9.8570 C.ar      1 SUB1        0.002
      4 C3         81.9220   68.6110  -10.3710 C.ar      1 SUB1       -0.039
      5 C4         80.7050   68.6170   -9.6410 C.ar      1 SUB1       -0.040
      6 C5         80.6360   69.3450   -8.4410 C.ar      1 SUB1        0.004
      7 N2         84.7730   70.4880  -11.3170 N.3       1 SUB1       -0.291
      8 C6         84.3480   69.2120  -10.6390 C.3       1 SUB1        0.050
      9 C7         85.5370   68.7450   -9.8010 C.3       1 SUB1       -0.025
     10 C8         86.7370   69.4340  -10.4240 C.3       1 SUB1       -0.037
     11 C9         86.2330   70.6250  -11.2350 C.3       1 SUB1        0.001
     12 C10        84.5020   70.4860  -12.7560 C.3       1 SUB1       -0.010
     13 H21        83.7982   70.3743   -8.1702 H         1 SUB1        0.077
     14 H41        81.9718   68.1079  -11.3299 H         1 SUB1        0.068
     15 H51        79.8427   68.0690  -10.0032 H         1 SUB1        0.069
     16 H61        79.6959   69.3993   -7.9041 H         1 SUB1        0.077
     17 H81        84.1860   68.4678  -11.4327 H         1 SUB1        0.064
     18 H91        85.6452   67.6517   -9.8554 H         1 SUB1        0.030
     19 H92        85.4159   69.0497   -8.7510 H         1 SUB1        0.030
     20 H101       87.2688   68.7324  -11.0835 H         1 SUB1        0.028
     21 H102       87.4183   69.7827   -9.6339 H         1 SUB1        0.028
     22 H111       86.4984   71.5665  -10.7319 H         1 SUB1        0.043
     23 H112       86.6729   70.6113  -12.2431 H         1 SUB1        0.043
     24 H121       83.4197   70.3862  -12.9251 H         1 SUB1        0.039
     25 H122       85.0260   69.6411  -13.2267 H         1 SUB1        0.039
     26 H123       84.8566   71.4292  -13.1972 H         1 SUB1        0.039
@<TRIPOS>BOND
     1    1    2 ar 
     2    1    6 ar 
     3    2    3 ar 
     4    3    4 ar 
     5    3    8 1  
     6    4    5 ar 
     7    5    6 ar 
     8    8    7 1  
     9    7   11 1  
    10    7   12 1  
    11    8    9 1  
    12    9   10 1  
    13   10   11 1  
    14    2   13 1  
    15    4   14 1  
    16    5   15 1  
    17    6   16 1  
    18    8   17 1  
    19    9   18 1  
    20    9   19 1  
    21   10   20 1  
    22   10   21 1  
    23   11   22 1  
    24   11   23 1  
    25   12   24 1  
    26   12   25 1  
    27   12   26 1  
@<TRIPOS>SUBSTRUCTURE
     1 SUB1        1 GROUP

