### 
### Created by X-TOOL on Sun Jun  3 12:00:56 2007
### 

@<TRIPOS>MOLECULE
2dw7_ligand
   14    13     1     0     0
SMALL
GAST_HUCK


@<TRIPOS>ATOM
      1 O1         10.2440   36.1510    9.1120 O.2       1 SUB1       -0.259
      2 O11         9.5590   35.7970   11.1670 O.2       1 SUB1       -0.259
      3 C1          9.5580   35.4350    9.9860 C.2       1 SUB1        0.378
      4 C2          8.8000   34.2380    9.4600 C.3       1 SUB1        0.210
      5 O2          9.4200   33.7600    8.2910 O.3       1 SUB1       -0.369
      6 C3          8.7190   33.0500   10.4370 C.3       1 SUB1        0.210
      7 O3          8.7410   33.4950   11.7720 O.3       1 SUB1       -0.369
      8 C4          7.4490   32.3030   10.2250 C.2       1 SUB1        0.378
      9 O4          7.4830   31.0720   10.2080 O.2       1 SUB1       -0.259
     10 O41         6.2720   32.9380   10.0460 O.2       1 SUB1       -0.259
     11 H           7.7869   34.6013    9.2875 H         1 SUB1        0.087
     12 H           9.4235   34.4523    7.6260 H         1 SUB1        0.213
     13 H           9.5795   32.4080   10.2486 H         1 SUB1        0.087
     14 H           9.5567   33.9742   11.9350 H         1 SUB1        0.213
@<TRIPOS>BOND
     1    1    3 2  
     2    3    2 2  
     3    3    4 1  
     4    4    5 1  
     5    4    6 1  
     6    6    7 1  
     7    6    8 1  
     8    8    9 2  
     9    8   10 2  
    10    4   11 1  
    11    5   12 1  
    12    6   13 1  
    13    7   14 1  
@<TRIPOS>SUBSTRUCTURE
     1 SUB1        1 GROUP

