### 
### Created by X-TOOL on Mon Oct 24 23:17:55 2005
### 

@<TRIPOS>MOLECULE
1ws4_ligand
   27    27     1     0     0
SMALL
GAST_HUCK


@<TRIPOS>ATOM
      1 C1         51.0840   54.1280   66.3810 C.3       1 SUB1        0.188
      2 C2         51.6640   55.4150   65.7840 C.3       1 SUB1        0.134
      3 C3         51.6710   56.5720   66.7820 C.3       1 SUB1        0.114
      4 C4         50.2330   56.8080   67.2470 C.3       1 SUB1        0.112
      5 C5         49.7010   55.5160   67.9130 C.3       1 SUB1        0.113
      6 C6         48.2610   55.6660   68.4270 C.3       1 SUB1        0.073
      7 C7         51.4270   52.3010   67.9180 C.3       1 SUB1        0.040
      8 O1         51.9540   53.5340   67.3700 O.3       1 SUB1       -0.352
      9 O2         52.9930   55.1490   65.3030 O.3       1 SUB1       -0.384
     10 O3         52.2070   57.7500   66.1450 O.3       1 SUB1       -0.386
     11 O4         50.2100   57.8880   68.1810 O.3       1 SUB1       -0.387
     12 O5         49.7480   54.4140   66.9400 O.3       1 SUB1       -0.340
     13 O6         47.3570   55.9400   67.3600 O.3       1 SUB1       -0.392
     14 H11        50.9655   53.3997   65.5652 H         1 SUB1        0.094
     15 H21        51.0361   55.7105   64.9305 H         1 SUB1        0.067
     16 H31        52.2978   56.3124   67.6479 H         1 SUB1        0.065
     17 H41        49.6021   57.0604   66.3820 H         1 SUB1        0.065
     18 H51        50.3515   55.2719   68.7658 H         1 SUB1        0.065
     19 H61        48.2230   56.4937   69.1504 H         1 SUB1        0.058
     20 H62        47.9581   54.7318   68.9224 H         1 SUB1        0.058
     21 H71        52.1314   51.8996   68.6615 H         1 SUB1        0.052
     22 H72        51.2913   51.5685   67.1087 H         1 SUB1        0.052
     23 H73        50.4582   52.4985   68.4001 H         1 SUB1        0.052
     24 H91        53.3337   55.9242   64.8723 H         1 SUB1        0.210
     25 H101       53.0988   57.5795   65.8655 H         1 SUB1        0.210
     26 H111       50.5383   58.6748   67.7618 H         1 SUB1        0.210
     27 H131       47.3823   55.2261   66.7338 H         1 SUB1        0.209
@<TRIPOS>BOND
     1    1    2 1  
     2    1    8 1  
     3    1   12 1  
     4    2    3 1  
     5    2    9 1  
     6    3    4 1  
     7    3   10 1  
     8    4    5 1  
     9    4   11 1  
    10    5    6 1  
    11    5   12 1  
    12    6   13 1  
    13    8    7 1  
    14    1   14 1  
    15    2   15 1  
    16    3   16 1  
    17    4   17 1  
    18    5   18 1  
    19    6   19 1  
    20    6   20 1  
    21    7   21 1  
    22    7   22 1  
    23    7   23 1  
    24    9   24 1  
    25   10   25 1  
    26   11   26 1  
    27   13   27 1  
@<TRIPOS>SUBSTRUCTURE
     1 SUB1        1 GROUP

