### 
### Created by X-TOOL on Mon Oct 24 22:35:47 2005
### 

@<TRIPOS>MOLECULE
1b6l_ligand
   82    84     1     0     0
SMALL
GAST_HUCK


@<TRIPOS>ATOM
      1 H401        6.0710    1.7876    9.1867 H         1 SUB1        0.032
      2 H402        6.3158    2.8032    7.7254 H         1 SUB1        0.032
      3 H431        4.0624    3.1289    8.3167 H         1 SUB1        0.050
      4 H432        4.9204    4.5821    8.9323 H         1 SUB1        0.050
      5 H441        3.9897    1.2831    9.9958 H         1 SUB1        0.188
      6 H451        3.4509    2.4333   12.6958 H         1 SUB1        0.083
      7 H481        1.3940    1.0967   12.8459 H         1 SUB1        0.055
      8 H482        1.6735    0.4591   11.1900 H         1 SUB1        0.055
      9 H511        0.6256    3.3841    9.5120 H         1 SUB1        0.181
     10 H512        1.5862    1.9474    9.3981 H         1 SUB1        0.181
     11 H521        4.5475    1.4745   14.2123 H         1 SUB1        0.186
     12 H531        4.9970   -1.4818   14.0236 H         1 SUB1        0.060
     13 H541        7.2293   -1.3026   14.5493 H         1 SUB1        0.043
     14 H542        7.0116    0.2428   15.4387 H         1 SUB1        0.043
     15 H561        7.1546    2.3405   14.3126 H         1 SUB1        0.053
     16 H571        7.7585    3.6254   12.3187 H         1 SUB1        0.052
     17 H581        7.3890   -1.2860   12.0639 H         1 SUB1        0.053
     18 H591        7.9990    0.0081   10.0510 H         1 SUB1        0.052
     19 H621        6.8306    4.1143   10.3697 H         1 SUB1        0.061
     20 H622        7.7057    4.2693    8.8087 H         1 SUB1        0.061
     21 H631        3.5859   -0.6357   15.9394 H         1 SUB1        0.063
     22 H641        4.7879    1.3247   16.2767 H         1 SUB1        0.210
     23 H651        4.9989   -1.7842   17.7558 H         1 SUB1        0.045
     24 H652        6.2471   -2.0059   16.4832 H         1 SUB1        0.045
     25 H671        5.3060   -4.3155   17.5792 H         1 SUB1        0.071
     26 H681        4.9577   -6.4002   16.3417 H         1 SUB1        0.031
     27 H682        4.3596   -5.4836   14.9174 H         1 SUB1        0.031
     28 H691        3.0302   -5.7523   17.6486 H         1 SUB1        0.027
     29 H692        2.4598   -6.4103   16.0775 H         1 SUB1        0.027
     30 H701        1.2873   -4.2966   16.8181 H         1 SUB1        0.028
     31 H702        2.0730   -4.1897   15.2063 H         1 SUB1        0.028
     32 H711        2.5162   -2.1610   16.4929 H         1 SUB1        0.043
     33 H712        3.1673   -3.1355   17.8541 H         1 SUB1        0.043
     34 H751       10.4861   -3.5595   15.2731 H         1 SUB1        0.025
     35 H752        9.3715   -2.7622   16.4343 H         1 SUB1        0.025
     36 H753        8.8112   -3.1476   14.7717 H         1 SUB1        0.025
     37 H761       10.8950   -5.3551   16.9025 H         1 SUB1        0.025
     38 H762        9.5259   -6.2947   17.5877 H         1 SUB1        0.025
     39 H763        9.7694   -4.5813   18.0691 H         1 SUB1        0.025
     40 C1          6.1160    2.8190    8.8070 C.3       1 SUB1       -0.008
     41 C2          4.2430    3.2310   10.4450 C.2       1 SUB1        0.178
     42 O3          4.1710    4.1370   11.2750 O.2       1 SUB1       -0.397
     43 C4          4.7890    3.4970    9.0560 C.3       1 SUB1        0.040
     44 N5          3.8770    1.9790   10.7050 N.am      1 SUB1       -0.264
     45 C6          3.3110    1.5880   12.0060 C.3       1 SUB1        0.147
     46 C7          3.9670    0.3640   12.6350 C.2       1 SUB1        0.205
     47 O8          3.9310   -0.7320   12.0750 O.2       1 SUB1       -0.394
     48 C9          1.8140    1.3240   11.8550 C.3       1 SUB1        0.077
     49 C10         1.0770    2.5020   11.2770 C.2       1 SUB1        0.178
     50 O11         0.5120    3.3110   12.0060 O.2       1 SUB1       -0.397
     51 N12         1.0980    2.6210    9.9530 N.am      1 SUB1       -0.301
     52 N13         4.5560    0.5590   13.8100 N.am      1 SUB1       -0.278
     53 C14         5.2190   -0.5330   14.5340 C.3       1 SUB1        0.077
     54 C15         6.7350   -0.3200   14.5350 C.3       1 SUB1        0.001
     55 C16         7.2100    0.4410   13.3290 C.ar      1 SUB1       -0.052
     56 C17         7.3330    1.8230   13.3770 C.ar      1 SUB1       -0.069
     57 C18         7.6760    2.5460   12.2630 C.ar      1 SUB1       -0.040
     58 C19         7.4640   -0.2060   12.1200 C.ar      1 SUB1       -0.069
     59 C20         7.8110    0.5160   10.9900 C.ar      1 SUB1       -0.040
     60 C21         7.9150    1.8950   11.0740 C.ar      1 SUB1        0.084
     61 O22         8.2220    2.6510    9.9710 O.3       1 SUB1       -0.322
     62 C23         7.2420    3.5620    9.5120 C.3       1 SUB1        0.071
     63 C24         4.6850   -0.6120   15.9760 C.3       1 SUB1        0.093
     64 O25         5.0950    0.5410   16.7170 O.3       1 SUB1       -0.388
     65 C26         5.1720   -1.8710   16.6730 C.3       1 SUB1        0.030
     66 N27         4.4230   -3.0340   16.1410 N.3       1 SUB1       -0.280
     67 C28         5.1850   -4.2660   16.4870 C.3       1 SUB1        0.101
     68 C29         4.4110   -5.5030   16.0160 C.3       1 SUB1       -0.020
     69 C30         2.9920   -5.5790   16.5630 C.3       1 SUB1       -0.048
     70 C31         2.2510   -4.2800   16.2880 C.3       1 SUB1       -0.040
     71 C32         3.0580   -3.0800   16.7610 C.3       1 SUB1        0.002
     72 C33         6.5680   -4.2310   15.8390 C.2       1 SUB1        0.194
     73 O34         6.7200   -3.7110   14.7320 O.2       1 SUB1       -0.395
     74 C35         8.9620   -4.8510   16.0860 C.3       1 SUB1        0.045
     75 C36         9.4410   -3.4850   15.6080 C.3       1 SUB1       -0.040
     76 C37         9.8500   -5.3020   17.2420 C.3       1 SUB1       -0.040
     77 C38         9.0930   -5.8660   14.9560 C.3       1 SUB1       -0.040
     78 N39         7.5630   -4.7800   16.5410 N.am      1 SUB1       -0.280
     79 H771       10.1406   -5.9114   14.6236 H         1 SUB1        0.025
     80 H772        8.4540   -5.5617   14.1139 H         1 SUB1        0.025
     81 H773        8.7790   -6.8572   15.3151 H         1 SUB1        0.025
     82 H781        7.3433   -5.1690   17.4357 H         1 SUB1        0.186
@<TRIPOS>BOND
     1   40    1 1  
     2   40    2 1  
     3   43    3 1  
     4   43    4 1  
     5   44    5 1  
     6   45    6 1  
     7   48    7 1  
     8   48    8 1  
     9   51    9 1  
    10   51   10 1  
    11   52   11 1  
    12   53   12 1  
    13   54   13 1  
    14   54   14 1  
    15   56   15 1  
    16   57   16 1  
    17   58   17 1  
    18   59   18 1  
    19   62   19 1  
    20   62   20 1  
    21   63   21 1  
    22   64   22 1  
    23   65   23 1  
    24   65   24 1  
    25   67   25 1  
    26   68   26 1  
    27   68   27 1  
    28   69   28 1  
    29   69   29 1  
    30   70   30 1  
    31   70   31 1  
    32   71   32 1  
    33   40   62 1  
    34   43   40 1  
    35   41   43 1  
    36   44   41 am 
    37   41   42 2  
    38   45   44 1  
    39   48   45 1  
    40   45   46 1  
    41   46   52 am 
    42   46   47 2  
    43   52   53 1  
    44   53   63 1  
    45   53   54 1  
    46   54   55 1  
    47   55   58 ar 
    48   55   56 ar 
    49   56   57 ar 
    50   57   60 ar 
    51   61   60 1  
    52   59   60 ar 
    53   58   59 ar 
    54   62   61 1  
    55   63   65 1  
    56   63   64 1  
    57   65   66 1  
    58   66   71 1  
    59   66   67 1  
    60   67   72 1  
    61   67   68 1  
    62   68   69 1  
    63   70   69 1  
    64   71   70 1  
    65   72   78 am 
    66   72   73 2  
    67   78   74 1  
    68   74   77 1  
    69   74   76 1  
    70   74   75 1  
    71   49   48 1  
    72   49   51 am 
    73   49   50 2  
    74   71   33 1  
    75   75   34 1  
    76   75   35 1  
    77   75   36 1  
    78   76   37 1  
    79   76   38 1  
    80   76   39 1  
    81   77   79 1  
    82   77   80 1  
    83   77   81 1  
    84   78   82 1  
@<TRIPOS>SUBSTRUCTURE
     1 SUB1        1 GROUP

