1b6l_ligand
  -I-interpret- 

 82 84  0  0  0  0  0  0  0  0999 V2000
    6.0710    1.7876    9.1867 H   0  0  0  0  0
    6.3158    2.8032    7.7254 H   0  0  0  0  0
    4.0624    3.1289    8.3167 H   0  0  0  0  0
    4.9204    4.5821    8.9323 H   0  0  0  0  0
    3.9897    1.2831    9.9958 H   0  0  0  0  0
    3.4509    2.4333   12.6958 H   0  0  0  0  0
    1.3940    1.0967   12.8459 H   0  0  0  0  0
    1.6735    0.4591   11.1900 H   0  0  0  0  0
    0.6256    3.3841    9.5120 H   0  0  0  0  0
    1.5862    1.9474    9.3981 H   0  0  0  0  0
    4.5475    1.4745   14.2123 H   0  0  0  0  0
    4.9970   -1.4818   14.0236 H   0  0  0  0  0
    7.2293   -1.3026   14.5493 H   0  0  0  0  0
    7.0116    0.2428   15.4387 H   0  0  0  0  0
    7.1546    2.3405   14.3126 H   0  0  0  0  0
    7.7585    3.6254   12.3187 H   0  0  0  0  0
    7.3890   -1.2860   12.0639 H   0  0  0  0  0
    7.9990    0.0081   10.0510 H   0  0  0  0  0
    6.8306    4.1143   10.3697 H   0  0  0  0  0
    7.7057    4.2693    8.8087 H   0  0  0  0  0
    3.5859   -0.6357   15.9394 H   0  0  0  0  0
    4.7879    1.3247   16.2767 H   0  0  0  0  0
    4.9989   -1.7842   17.7558 H   0  0  0  0  0
    6.2471   -2.0059   16.4832 H   0  0  0  0  0
    5.3060   -4.3155   17.5792 H   0  0  0  0  0
    4.9577   -6.4002   16.3417 H   0  0  0  0  0
    4.3596   -5.4836   14.9174 H   0  0  0  0  0
    3.0302   -5.7523   17.6486 H   0  0  0  0  0
    2.4598   -6.4103   16.0775 H   0  0  0  0  0
    1.2873   -4.2966   16.8181 H   0  0  0  0  0
    2.0730   -4.1897   15.2063 H   0  0  0  0  0
    2.5162   -2.1610   16.4929 H   0  0  0  0  0
    3.1673   -3.1355   17.8541 H   0  0  0  0  0
   10.4861   -3.5595   15.2731 H   0  0  0  0  0
    9.3715   -2.7622   16.4343 H   0  0  0  0  0
    8.8112   -3.1476   14.7717 H   0  0  0  0  0
   10.8950   -5.3551   16.9025 H   0  0  0  0  0
    9.5259   -6.2947   17.5877 H   0  0  0  0  0
    9.7694   -4.5813   18.0691 H   0  0  0  0  0
    6.1160    2.8190    8.8070 C   0  0  0  0  0
    4.2430    3.2310   10.4450 C   0  0  0  0  0
    4.1710    4.1370   11.2750 O   0  0  0  0  0
    4.7890    3.4970    9.0560 C   0  0  0  0  0
    3.8770    1.9790   10.7050 N   0  0  0  0  0
    3.3110    1.5880   12.0060 C   0  0  0  0  0
    3.9670    0.3640   12.6350 C   0  0  0  0  0
    3.9310   -0.7320   12.0750 O   0  0  0  0  0
    1.8140    1.3240   11.8550 C   0  0  0  0  0
    1.0770    2.5020   11.2770 C   0  0  0  0  0
    0.5120    3.3110   12.0060 O   0  0  0  0  0
    1.0980    2.6210    9.9530 N   0  0  0  0  0
    4.5560    0.5590   13.8100 N   0  0  0  0  0
    5.2190   -0.5330   14.5340 C   0  0  0  0  0
    6.7350   -0.3200   14.5350 C   0  0  0  0  0
    7.2100    0.4410   13.3290 C   0  0  0  0  0
    7.3330    1.8230   13.3770 C   0  0  0  0  0
    7.6760    2.5460   12.2630 C   0  0  0  0  0
    7.4640   -0.2060   12.1200 C   0  0  0  0  0
    7.8110    0.5160   10.9900 C   0  0  0  0  0
    7.9150    1.8950   11.0740 C   0  0  0  0  0
    8.2220    2.6510    9.9710 O   0  0  0  0  0
    7.2420    3.5620    9.5120 C   0  0  0  0  0
    4.6850   -0.6120   15.9760 C   0  0  0  0  0
    5.0950    0.5410   16.7170 O   0  0  0  0  0
    5.1720   -1.8710   16.6730 C   0  0  0  0  0
    4.4230   -3.0340   16.1410 N   0  0  0  0  0
    5.1850   -4.2660   16.4870 C   0  0  0  0  0
    4.4110   -5.5030   16.0160 C   0  0  0  0  0
    2.9920   -5.5790   16.5630 C   0  0  0  0  0
    2.2510   -4.2800   16.2880 C   0  0  0  0  0
    3.0580   -3.0800   16.7610 C   0  0  0  0  0
    6.5680   -4.2310   15.8390 C   0  0  0  0  0
    6.7200   -3.7110   14.7320 O   0  0  0  0  0
    8.9620   -4.8510   16.0860 C   0  0  0  0  0
    9.4410   -3.4850   15.6080 C   0  0  0  0  0
    9.8500   -5.3020   17.2420 C   0  0  0  0  0
    9.0930   -5.8660   14.9560 C   0  0  0  0  0
    7.5630   -4.7800   16.5410 N   0  0  0  0  0
   10.1406   -5.9114   14.6236 H   0  0  0  0  0
    8.4540   -5.5617   14.1139 H   0  0  0  0  0
    8.7790   -6.8572   15.3151 H   0  0  0  0  0
    7.3433   -5.1690   17.4357 H   0  0  0  0  0
 40  1  1  0  0  0
 40  2  1  0  0  0
 43  3  1  0  0  0
 43  4  1  0  0  0
 44  5  1  0  0  0
 45  6  1  0  0  0
 48  7  1  0  0  0
 48  8  1  0  0  0
 51  9  1  0  0  0
 51 10  1  0  0  0
 52 11  1  0  0  0
 53 12  1  0  0  0
 54 13  1  0  0  0
 54 14  1  0  0  0
 56 15  1  0  0  0
 57 16  1  0  0  0
 58 17  1  0  0  0
 59 18  1  0  0  0
 62 19  1  0  0  0
 62 20  1  0  0  0
 63 21  1  0  0  0
 64 22  1  0  0  0
 65 23  1  0  0  0
 65 24  1  0  0  0
 67 25  1  0  0  0
 68 26  1  0  0  0
 68 27  1  0  0  0
 69 28  1  0  0  0
 69 29  1  0  0  0
 70 30  1  0  0  0
 70 31  1  0  0  0
 71 32  1  0  0  0
 40 62  1  0  0  0
 43 40  1  0  0  0
 41 43  1  0  0  0
 44 41  1  0  0  0
 41 42  2  0  0  0
 45 44  1  0  0  0
 48 45  1  0  0  0
 45 46  1  0  0  0
 46 52  1  0  0  0
 46 47  2  0  0  0
 52 53  1  0  0  0
 53 63  1  0  0  0
 53 54  1  0  0  0
 54 55  1  0  0  0
 55 58  4  0  0  0
 55 56  4  0  0  0
 56 57  4  0  0  0
 57 60  4  0  0  0
 61 60  1  0  0  0
 59 60  4  0  0  0
 58 59  4  0  0  0
 62 61  1  0  0  0
 63 65  1  0  0  0
 63 64  1  0  0  0
 65 66  1  0  0  0
 66 71  1  0  0  0
 66 67  1  0  0  0
 67 72  1  0  0  0
 67 68  1  0  0  0
 68 69  1  0  0  0
 70 69  1  0  0  0
 71 70  1  0  0  0
 72 78  1  0  0  0
 72 73  2  0  0  0
 78 74  1  0  0  0
 74 77  1  0  0  0
 74 76  1  0  0  0
 74 75  1  0  0  0
 49 48  1  0  0  0
 49 51  1  0  0  0
 49 50  2  0  0  0
 71 33  1  0  0  0
 75 34  1  0  0  0
 75 35  1  0  0  0
 75 36  1  0  0  0
 76 37  1  0  0  0
 76 38  1  0  0  0
 76 39  1  0  0  0
 77 79  1  0  0  0
 77 80  1  0  0  0
 77 81  1  0  0  0
 78 82  1  0  0  0
M  END
$$$$
