1lgt_ligand
  -I-interpret- 

 24 25  0  0  0  0  0  0  0  0999 V2000
   21.3048   23.9080   16.3961 H   0  0  0  0  0
   18.7559   22.1662   15.8385 H   0  0  0  0  0
   22.4900   21.7710   16.5330 C   0  0  0  0  0
   21.1240   22.0060   16.2810 C   0  0  0  0  0
   20.6090   23.2810   16.2370 O   0  0  0  0  0
   20.2170   20.9380   16.0630 C   0  0  0  0  0
   18.8840   21.2250   15.8220 O   0  0  0  0  0
   20.6740   19.6030   16.0920 C   0  0  0  0  0
   22.0460   19.3510   16.3410 C   0  0  0  0  0
   22.9460   20.4330   16.5610 C   0  0  0  0  0
   23.4290   22.9220   16.7670 C   0  0  0  0  0
   23.3790   23.7050   17.9610 C   0  0  0  0  0
   24.2730   24.7930   18.1600 C   0  0  0  0  0
   25.2340   25.1130   17.1680 C   0  0  0  0  0
   25.2930   24.3410   15.9820 C   0  0  0  0  0
   24.3940   23.2580   15.7910 C   0  0  0  0  0
   19.9854   18.7824   15.9262 H   0  0  0  0  0
   22.4121   18.3309   16.3642 H   0  0  0  0  0
   23.9931   20.2281   16.7522 H   0  0  0  0  0
   24.2196   25.3781   19.0710 H   0  0  0  0  0
   25.9176   25.9412   17.3159 H   0  0  0  0  0
   26.0256   24.5771   15.2187 H   0  0  0  0  0
   24.4494   22.6771   14.8774 H   0  0  0  0  0
   22.2520   23.4230   19.2720 Cl  0  0  0  0  0
  3 11  4  0  0  0
  3 10  4  0  0  0
  3  4  4  0  0  0
  4  6  4  0  0  0
  4  5  1  0  0  0
  6  8  4  0  0  0
  6  7  1  0  0  0
  8  9  4  0  0  0
  9 10  4  0  0  0
 11 16  4  0  0  0
 11 12  4  0  0  0
 12 13  4  0  0  0
 13 14  4  0  0  0
 14 15  4  0  0  0
 15 16  4  0  0  0
  5  1  1  0  0  0
  7  2  1  0  0  0
  8 17  1  0  0  0
  9 18  1  0  0  0
 10 19  1  0  0  0
 13 20  1  0  0  0
 14 21  1  0  0  0
 15 22  1  0  0  0
 16 23  1  0  0  0
 12 24  1  0  0  0
M  END
$$$$
