### 
### Created by X-TOOL on Mon Oct 24 22:33:48 2005
### 

@<TRIPOS>MOLECULE
1lgt_ligand
   24    25     1     0     0
SMALL
GAST_HUCK


@<TRIPOS>ATOM
      1 H51        21.3048   23.9080   16.3961 H         1 SUB1        0.246
      2 H71        18.7559   22.1662   15.8385 H         1 SUB1        0.244
      3 CA1        22.4900   21.7710   16.5330 C.ar      1 SUB1        0.005
      4 CA2        21.1240   22.0060   16.2810 C.ar      1 SUB1        0.127
      5 OA2        20.6090   23.2810   16.2370 O.3       1 SUB1       -0.334
      6 CA3        20.2170   20.9380   16.0630 C.ar      1 SUB1        0.118
      7 OA3        18.8840   21.2250   15.8220 O.3       1 SUB1       -0.337
      8 CA4        20.6740   19.6030   16.0920 C.ar      1 SUB1       -0.041
      9 CA5        22.0460   19.3510   16.3410 C.ar      1 SUB1       -0.080
     10 CA6        22.9460   20.4330   16.5610 C.ar      1 SUB1       -0.072
     11 CB1        23.4290   22.9220   16.7670 C.ar      1 SUB1       -0.011
     12 CB2        23.3790   23.7050   17.9610 C.ar      1 SUB1        0.045
     13 CB3        24.2730   24.7930   18.1600 C.ar      1 SUB1       -0.050
     14 CB4        25.2340   25.1130   17.1680 C.ar      1 SUB1       -0.063
     15 CB5        25.2930   24.3410   15.9820 C.ar      1 SUB1       -0.064
     16 CB6        24.3940   23.2580   15.7910 C.ar      1 SUB1       -0.057
     17 H81        19.9854   18.7824   15.9262 H         1 SUB1        0.052
     18 H91        22.4121   18.3309   16.3642 H         1 SUB1        0.050
     19 H101       23.9931   20.2281   16.7522 H         1 SUB1        0.050
     20 H131       24.2196   25.3781   19.0710 H         1 SUB1        0.062
     21 H141       25.9176   25.9412   17.3159 H         1 SUB1        0.060
     22 H151       26.0256   24.5771   15.2187 H         1 SUB1        0.061
     23 H161       24.4494   22.6771   14.8774 H         1 SUB1        0.060
     24 CL1        22.2520   23.4230   19.2720 Cl        1 SUB1       -0.072
@<TRIPOS>BOND
     1    3   11 ar 
     2    3   10 ar 
     3    3    4 ar 
     4    4    6 ar 
     5    4    5 1  
     6    6    8 ar 
     7    6    7 1  
     8    8    9 ar 
     9    9   10 ar 
    10   11   16 ar 
    11   11   12 ar 
    12   12   13 ar 
    13   13   14 ar 
    14   14   15 ar 
    15   15   16 ar 
    16    5    1 1  
    17    7    2 1  
    18    8   17 1  
    19    9   18 1  
    20   10   19 1  
    21   13   20 1  
    22   14   21 1  
    23   15   22 1  
    24   16   23 1  
    25   12   24 1  
@<TRIPOS>SUBSTRUCTURE
     1 SUB1        1 GROUP

