### 
### Created by X-TOOL on Tue Oct 25 02:33:59 2005
### 

@<TRIPOS>MOLECULE
1jmi_ligand
   31    32     1     0     0
SMALL
GAST_HUCK


@<TRIPOS>ATOM
      1 N1         14.8600   48.3380  -53.4820 N.am      1 SUB1       -0.162
      2 C2         14.0410   47.2650  -53.1280 C.2       1 SUB1        0.333
      3 N3         13.1860   47.4460  -52.0390 N.am      1 SUB1       -0.186
      4 C4         13.0820   48.6310  -51.2710 C.2       1 SUB1        0.182
      5 C5         13.9870   49.7100  -51.7270 C.2       1 SUB1        0.006
      6 C6         14.8520   49.5050  -52.8300 C.2       1 SUB1        0.059
      7 O2         14.0330   46.1960  -53.7230 O.2       1 SUB1       -0.382
      8 O4         12.2980   48.6870  -50.3110 O.2       1 SUB1       -0.412
      9 C1         15.7730   48.1980  -54.6410 C.3       1 SUB1        0.180
     10 C2         15.0830   47.9110  -55.9750 C.3       1 SUB1        0.032
     11 C3         16.2260   48.0430  -56.9720 C.3       1 SUB1        0.089
     12 C4         16.9760   49.3170  -56.5820 C.3       1 SUB1        0.115
     13 O3         17.1100   46.9480  -56.7710 O.3       1 SUB1       -0.389
     14 O4         16.7550   49.2890  -55.0750 O.3       1 SUB1       -0.339
     15 C5         16.3040   50.5400  -57.2200 C.3       1 SUB1        0.094
     16 O5         16.6210   50.4450  -58.6500 O.3       1 SUB1       -0.320
     17 P          15.8220   51.0300  -59.8540 P.3       1 SUB1        0.205
     18 O1P        16.6910   51.4420  -60.9390 O.co2     1 SUB1       -0.535
     19 O2P        15.0160   49.9170  -60.3630 O.co2     1 SUB1       -0.535
     20 O3P        15.0070   52.2210  -59.4490 O.co2     1 SUB1       -0.535
     21 H31        12.6005   46.6775  -51.7809 H         1 SUB1        0.226
     22 H51        13.9878   50.6688  -51.2106 H         1 SUB1        0.026
     23 H61        15.5169   50.3059  -53.1499 H         1 SUB1        0.118
     24 H91        16.3847   47.3216  -54.3807 H         1 SUB1        0.097
     25 H101       14.2906   48.6462  -56.1790 H         1 SUB1        0.034
     26 H102       14.6560   46.8974  -55.9918 H         1 SUB1        0.034
     27 H111       15.8618   48.0821  -58.0092 H         1 SUB1        0.062
     28 H121       18.0420   49.2816  -56.8511 H         1 SUB1        0.065
     29 H131       17.3688   46.9149  -55.8575 H         1 SUB1        0.210
     30 H151       16.7100   51.4698  -56.7950 H         1 SUB1        0.064
     31 H152       15.2158   50.5093  -57.0624 H         1 SUB1        0.064
@<TRIPOS>BOND
     1    1    2 am 
     2    1    6 1  
     3    1    9 1  
     4    2    3 am 
     5    2    7 2  
     6    3    4 am 
     7    4    5 1  
     8    4    8 2  
     9    5    6 2  
    10    9   10 1  
    11    9   14 1  
    12   10   11 1  
    13   11   12 1  
    14   11   13 1  
    15   12   14 1  
    16   12   15 1  
    17   15   16 1  
    18   16   17 1  
    19   17   18 2  
    20   17   19 2  
    21   17   20 2  
    22    3   21 1  
    23    5   22 1  
    24    6   23 1  
    25    9   24 1  
    26   10   25 1  
    27   10   26 1  
    28   11   27 1  
    29   12   28 1  
    30   13   29 1  
    31   15   30 1  
    32   15   31 1  
@<TRIPOS>SUBSTRUCTURE
     1 SUB1        1 GROUP

