1jmi_ligand
  -I-interpret- 

 31 32  0  0  0  0  0  0  0  0999 V2000
   14.8600   48.3380  -53.4820 N   0  0  0  0  0
   14.0410   47.2650  -53.1280 C   0  0  0  0  0
   13.1860   47.4460  -52.0390 N   0  0  0  0  0
   13.0820   48.6310  -51.2710 C   0  0  0  0  0
   13.9870   49.7100  -51.7270 C   0  0  0  0  0
   14.8520   49.5050  -52.8300 C   0  0  0  0  0
   14.0330   46.1960  -53.7230 O   0  0  0  0  0
   12.2980   48.6870  -50.3110 O   0  0  0  0  0
   15.7730   48.1980  -54.6410 C   0  0  0  0  0
   15.0830   47.9110  -55.9750 C   0  0  0  0  0
   16.2260   48.0430  -56.9720 C   0  0  0  0  0
   16.9760   49.3170  -56.5820 C   0  0  0  0  0
   17.1100   46.9480  -56.7710 O   0  0  0  0  0
   16.7550   49.2890  -55.0750 O   0  0  0  0  0
   16.3040   50.5400  -57.2200 C   0  0  0  0  0
   16.6210   50.4450  -58.6500 O   0  0  0  0  0
   15.8220   51.0300  -59.8540 P   0  0  0  0  0
   16.6910   51.4420  -60.9390 O   0  0  0  0  0
   15.0160   49.9170  -60.3630 O   0  5  0  0  0
   15.0070   52.2210  -59.4490 O   0  5  0  0  0
   12.6005   46.6775  -51.7809 H   0  0  0  0  0
   13.9878   50.6688  -51.2106 H   0  0  0  0  0
   15.5169   50.3059  -53.1499 H   0  0  0  0  0
   16.3847   47.3216  -54.3807 H   0  0  0  0  0
   14.2906   48.6462  -56.1790 H   0  0  0  0  0
   14.6560   46.8974  -55.9918 H   0  0  0  0  0
   15.8618   48.0821  -58.0092 H   0  0  0  0  0
   18.0420   49.2816  -56.8511 H   0  0  0  0  0
   17.3688   46.9149  -55.8575 H   0  0  0  0  0
   16.7100   51.4698  -56.7950 H   0  0  0  0  0
   15.2158   50.5093  -57.0624 H   0  0  0  0  0
  1  2  1  0  0  0
  1  6  1  0  0  0
  1  9  1  0  0  0
  2  3  1  0  0  0
  2  7  2  0  0  0
  3  4  1  0  0  0
  4  5  1  0  0  0
  4  8  2  0  0  0
  5  6  2  0  0  0
  9 10  1  0  0  0
  9 14  1  0  0  0
 10 11  1  0  0  0
 11 12  1  0  0  0
 11 13  1  0  0  0
 12 14  1  0  0  0
 12 15  1  0  0  0
 15 16  1  0  0  0
 16 17  1  0  0  0
 17 18  2  0  0  0
 17 19  1  0  0  0
 17 20  1  0  0  0
  3 21  1  0  0  0
  5 22  1  0  0  0
  6 23  1  0  0  0
  9 24  1  0  0  0
 10 25  1  0  0  0
 10 26  1  0  0  0
 11 27  1  0  0  0
 12 28  1  0  0  0
 13 29  1  0  0  0
 15 30  1  0  0  0
 15 31  1  0  0  0
M  END
$$$$
