7abp_ligand
  -I-interpret- 

 23 23  0  0  0  0  0  0  0  0999 V2000
   14.3010   57.1260   55.2250 C   0  0  0  0  0
   12.8400   57.2990   54.8580 C   0  0  0  0  0
   12.3730   56.4280   53.7660 C   0  0  0  0  0
   13.2290   56.6080   52.4870 C   0  0  0  0  0
   14.6900   56.3210   52.8850 C   0  0  0  0  0
   15.7070   56.7590   51.8240 C   0  0  0  0  0
   14.4840   55.9390   55.9190 O   0  0  0  0  0
   12.0450   57.0330   56.0670 O   0  0  0  0  0
   11.0180   56.7380   53.4310 O   0  0  0  0  0
   13.0450   57.9030   51.8870 O   0  0  0  0  0
   15.0850   57.0690   54.0160 O   0  0  0  0  0
   14.6283   57.9732   55.8455 H   0  0  0  0  0
   12.6863   58.3424   54.5454 H   0  0  0  0  0
   12.4372   55.3815   54.0987 H   0  0  0  0  0
   12.9169   55.8566   51.7468 H   0  0  0  0  0
   14.7893   55.2435   53.0830 H   0  0  0  0  0
   16.7239   56.5253   52.1723 H   0  0  0  0  0
   15.6172   57.8422   51.6551 H   0  0  0  0  0
   15.5095   56.2236   50.8836 H   0  0  0  0  0
   13.9734   55.9598   56.7199 H   0  0  0  0  0
   12.1489   56.1230   56.3191 H   0  0  0  0  0
   10.9665   57.6350   53.1224 H   0  0  0  0  0
   12.1289   58.0205   51.6647 H   0  0  0  0  0
  1  2  1  0  0  0
  1  7  1  0  0  0
  1 11  1  0  0  0
  2  3  1  0  0  0
  2  8  1  0  0  0
  3  4  1  0  0  0
  3  9  1  0  0  0
  4  5  1  0  0  0
  4 10  1  0  0  0
  5  6  1  0  0  0
  5 11  1  0  0  0
  1 12  1  0  0  0
  2 13  1  0  0  0
  3 14  1  0  0  0
  4 15  1  0  0  0
  5 16  1  0  0  0
  6 17  1  0  0  0
  6 18  1  0  0  0
  6 19  1  0  0  0
  7 20  1  0  0  0
  8 21  1  0  0  0
  9 22  1  0  0  0
 10 23  1  0  0  0
M  END
$$$$
