### 
### Created by X-TOOL on Mon Oct 24 22:41:32 2005
### 

@<TRIPOS>MOLECULE
1e4h_ligand
   13    13     1     0     0
SMALL
GAST_HUCK


@<TRIPOS>ATOM
      1 H21        43.8134   -0.3758   29.5185 H         1 SUB1        0.252
      2 O1         43.0000    0.0000   29.2030 O.3       1 SUB1       -0.326
      3 C1         41.9070    0.5050   27.1740 C.ar      1 SUB1        0.058
      4 C2         41.8980    0.5160   25.7600 C.ar      1 SUB1        0.029
      5 C3         43.0000    0.0000   25.0470 C.ar      1 SUB1        0.026
      6 C4         44.1000   -0.5160   25.7600 C.ar      1 SUB1        0.029
      7 C5         44.0900   -0.5050   27.1740 C.ar      1 SUB1        0.058
      8 C6         43.0000    0.0000   27.8680 C.ar      1 SUB1        0.116
      9 BR1        40.4450    1.1990   28.1520 Br        1 SUB1       -0.051
     10 BR2        40.4120    1.2290   24.8260 Br        1 SUB1       -0.044
     11 BR3        43.0000    0.0000   23.1510 Br        1 SUB1       -0.053
     12 BR4        45.5900   -1.2290   24.8260 Br        1 SUB1       -0.044
     13 BR5        45.5600   -1.1990   28.1520 Br        1 SUB1       -0.051
@<TRIPOS>BOND
     1    2    1 1  
     2    8    2 1  
     3    3    4 ar 
     4    3    8 ar 
     5    3    9 1  
     6    4    5 ar 
     7    4   10 1  
     8    5    6 ar 
     9    5   11 1  
    10    6    7 ar 
    11    6   12 1  
    12    7    8 ar 
    13    7   13 1  
@<TRIPOS>SUBSTRUCTURE
     1 SUB1        1 GROUP

