1e4h_ligand
  -I-interpret- 

 13 13  0  0  0  0  0  0  0  0999 V2000
   43.8134   -0.3758   29.5185 H   0  0  0  0  0
   43.0000    0.0000   29.2030 O   0  0  0  0  0
   41.9070    0.5050   27.1740 C   0  0  0  0  0
   41.8980    0.5160   25.7600 C   0  0  0  0  0
   43.0000    0.0000   25.0470 C   0  0  0  0  0
   44.1000   -0.5160   25.7600 C   0  0  0  0  0
   44.0900   -0.5050   27.1740 C   0  0  0  0  0
   43.0000    0.0000   27.8680 C   0  0  0  0  0
   40.4450    1.1990   28.1520 Br  0  0  0  0  0
   40.4120    1.2290   24.8260 Br  0  0  0  0  0
   43.0000    0.0000   23.1510 Br  0  0  0  0  0
   45.5900   -1.2290   24.8260 Br  0  0  0  0  0
   45.5600   -1.1990   28.1520 Br  0  0  0  0  0
  2  1  1  0  0  0
  8  2  1  0  0  0
  3  4  4  0  0  0
  3  8  4  0  0  0
  3  9  1  0  0  0
  4  5  4  0  0  0
  4 10  1  0  0  0
  5  6  4  0  0  0
  5 11  1  0  0  0
  6  7  4  0  0  0
  6 12  1  0  0  0
  7  8  4  0  0  0
  7 13  1  0  0  0
M  END
$$$$
