### 
### Created by X-TOOL on Tue Oct 25 01:16:55 2005
### 

@<TRIPOS>MOLECULE
1h22_ligand
   78    81     1     0     0
SMALL
GAST_HUCK


@<TRIPOS>ATOM
      1 C1          4.6110   59.5350   71.3530 C.2       1 SUB1        0.181
      2 N2          3.7670   58.4830   71.6150 N.am      1 SUB1       -0.223
      3 C3          2.7900   58.4320   72.5350 C.2       1 SUB1        0.088
      4 C4          2.5470   59.5350   73.3460 C.2       1 SUB1        0.023
      5 C5          3.4020   60.7310   73.1820 C.2       1 SUB1       -0.078
      6 C6          4.4030   60.7540   72.2300 C.2       1 SUB1       -0.028
      7 O7          5.4310   59.4610   70.4410 O.2       1 SUB1       -0.431
      8 C9          2.0090   57.0990   72.6480 C.3       1 SUB1        0.019
      9 C10         1.4540   59.5250   74.4340 C.3       1 SUB1       -0.003
     10 C13         0.7230   58.1450   74.5910 C.3       1 SUB1       -0.004
     11 C14         0.6170   57.3300   73.2570 C.3       1 SUB1       -0.031
     12 N17         0.4270   60.6230   74.0930 N.4       1 SUB1        0.235
     13 C24        -0.3570   60.4920   72.7930 C.3       1 SUB1       -0.033
     14 C29         0.9910   68.3680   60.8990 C.2       1 SUB1        0.181
     15 N30         2.3790   68.3900   60.9720 N.am      1 SUB1       -0.223
     16 C31         3.1540   68.3130   62.0900 C.2       1 SUB1        0.088
     17 C32         2.5630   68.1880   63.3530 C.2       1 SUB1        0.023
     18 C33         1.0760   68.1260   63.4100 C.2       1 SUB1       -0.078
     19 C34         0.2890   68.2110   62.2470 C.2       1 SUB1       -0.028
     20 O35         0.4230   68.5620   59.8060 O.2       1 SUB1       -0.431
     21 C36         4.6770   68.3630   61.8600 C.3       1 SUB1        0.019
     22 C37         3.4630   68.1010   64.6320 C.3       1 SUB1       -0.003
     23 C38         4.9830   67.9090   64.3050 C.3       1 SUB1       -0.004
     24 C39         5.4440   68.7620   63.1480 C.3       1 SUB1       -0.031
     25 N40         3.1490   66.9030   65.5150 N.4       1 SUB1        0.235
     26 C41         4.1450   66.5400   66.6350 C.3       1 SUB1       -0.033
     27 C63        -0.8540   61.8630   72.3690 C.3       1 SUB1       -0.013
     28 C64         0.2800   62.8330   72.0220 C.3       1 SUB1       -0.048
     29 C65         1.0520   62.4120   70.8010 C.3       1 SUB1       -0.053
     30 C66         1.7930   63.5830   70.1510 C.3       1 SUB1       -0.053
     31 C67         3.2970   63.2790   70.1170 C.3       1 SUB1       -0.053
     32 C68         4.1290   63.8550   68.9560 C.3       1 SUB1       -0.053
     33 C69         4.2940   65.3940   68.9250 C.3       1 SUB1       -0.048
     34 C70         3.3800   66.0170   67.8370 C.3       1 SUB1       -0.013
     35 H21         3.8946   57.6626   71.0577 H         1 SUB1        0.253
     36 H51         3.2410   61.6008   73.8171 H         1 SUB1        0.060
     37 H61         5.0330   61.6343   72.1114 H         1 SUB1        0.030
     38 H81         2.5720   56.4047   73.2891 H         1 SUB1        0.051
     39 H82         1.8954   56.6618   71.6450 H         1 SUB1        0.051
     40 H91         1.9280   59.7657   75.3970 H         1 SUB1        0.091
     41 H101       -0.2945   58.3321   74.9648 H         1 SUB1        0.033
     42 H102        1.2774   57.5402   75.3237 H         1 SUB1        0.033
     43 H111       -0.0020   57.8897   72.5404 H         1 SUB1        0.030
     44 H112        0.1481   56.3569   73.4649 H         1 SUB1        0.030
     45 H121        0.9256   61.4982   74.0551 H         1 SUB1        0.202
     46 H122       -0.2432   60.6504   74.8454 H         1 SUB1        0.202
     47 H131       -1.2150   59.8211   72.9468 H         1 SUB1        0.081
     48 H132        0.2957   60.0789   72.0098 H         1 SUB1        0.081
     49 H151        2.8656   68.4719   60.1022 H         1 SUB1        0.253
     50 H181        0.5859   68.0121   64.3758 H         1 SUB1        0.060
     51 H191       -0.7975   68.1659   62.3062 H         1 SUB1        0.030
     52 H211        4.8939   69.1013   61.0740 H         1 SUB1        0.051
     53 H212        5.0203   67.3698   61.5350 H         1 SUB1        0.051
     54 H221        3.3208   69.0297   65.2041 H         1 SUB1        0.091
     55 H231        5.1580   66.8523   64.0544 H         1 SUB1        0.033
     56 H232        5.5708   68.1769   65.1954 H         1 SUB1        0.033
     57 H241        5.2498   69.8206   63.3751 H         1 SUB1        0.030
     58 H242        6.5225   68.6124   62.9915 H         1 SUB1        0.030
     59 H251        2.2587   67.0803   65.9531 H         1 SUB1        0.202
     60 H252        3.0724   66.0993   64.9115 H         1 SUB1        0.202
     61 H261        4.8370   65.7648   66.2742 H         1 SUB1        0.081
     62 H262        4.7154   67.4351   66.9236 H         1 SUB1        0.081
     63 H271       -1.4420   62.2926   73.1935 H         1 SUB1        0.032
     64 H272       -1.4961   61.7442   71.4838 H         1 SUB1        0.032
     65 H281        0.9722   62.8846   72.8753 H         1 SUB1        0.027
     66 H282       -0.1518   63.8281   71.8393 H         1 SUB1        0.027
     67 H291        0.3507   61.9865   70.0682 H         1 SUB1        0.026
     68 H292        1.7864   61.6468   71.0930 H         1 SUB1        0.026
     69 H301        1.6168   64.4984   70.7350 H         1 SUB1        0.026
     70 H302        1.4243   63.7262   69.1246 H         1 SUB1        0.026
     71 H311        3.4082   62.1851   70.0868 H         1 SUB1        0.026
     72 H312        3.7293   63.6659   71.0516 H         1 SUB1        0.026
     73 H321        3.6464   63.5511   68.0154 H         1 SUB1        0.026
     74 H322        5.1341   63.4117   69.0123 H         1 SUB1        0.026
     75 H331        5.3424   65.6412   68.7019 H         1 SUB1        0.027
     76 H332        4.0208   65.8072   69.9072 H         1 SUB1        0.027
     77 H341        2.8227   66.8523   68.2861 H         1 SUB1        0.032
     78 H342        2.6732   65.2476   67.4928 H         1 SUB1        0.032
@<TRIPOS>BOND
     1    1    7 2  
     2    1    6 1  
     3    1    2 am 
     4    2    3 am 
     5    3    8 1  
     6    3    4 2  
     7    4    9 1  
     8    4    5 1  
     9    5    6 2  
    10    9   12 1  
    11    9   10 1  
    12   10   11 1  
    13   11    8 1  
    14   12   13 1  
    15   13   27 1  
    16   27   28 1  
    17   28   29 1  
    18   29   30 1  
    19   30   31 1  
    20   31   32 1  
    21   32   33 1  
    22   33   34 1  
    23   34   26 1  
    24   26   25 1  
    25   25   22 1  
    26   22   23 1  
    27   22   17 1  
    28   17   18 1  
    29   17   16 2  
    30   16   21 1  
    31   16   15 am 
    32   15   14 am 
    33   14   20 2  
    34   14   19 1  
    35   19   18 2  
    36   21   24 1  
    37   24   23 1  
    38    2   35 1  
    39    5   36 1  
    40    6   37 1  
    41    8   38 1  
    42    8   39 1  
    43    9   40 1  
    44   10   41 1  
    45   10   42 1  
    46   11   43 1  
    47   11   44 1  
    48   12   45 1  
    49   12   46 1  
    50   13   47 1  
    51   13   48 1  
    52   15   49 1  
    53   18   50 1  
    54   19   51 1  
    55   21   52 1  
    56   21   53 1  
    57   22   54 1  
    58   23   55 1  
    59   23   56 1  
    60   24   57 1  
    61   24   58 1  
    62   25   59 1  
    63   25   60 1  
    64   26   61 1  
    65   26   62 1  
    66   27   63 1  
    67   27   64 1  
    68   28   65 1  
    69   28   66 1  
    70   29   67 1  
    71   29   68 1  
    72   30   69 1  
    73   30   70 1  
    74   31   71 1  
    75   31   72 1  
    76   32   73 1  
    77   32   74 1  
    78   33   75 1  
    79   33   76 1  
    80   34   77 1  
    81   34   78 1  
@<TRIPOS>SUBSTRUCTURE
     1 SUB1        1 GROUP

