### 
### Created by X-TOOL on Mon Oct 24 22:55:54 2005
### 

@<TRIPOS>MOLECULE
1ydb_ligand
   19    19     1     0     0
SMALL
GAST_HUCK


@<TRIPOS>ATOM
      1 C1         -5.0120    2.2110   16.1310 C.2       1 SUB1        0.256
      2 C2         -4.4160    4.0180   14.9440 C.2       1 SUB1        0.225
      3 C3         -5.1680    5.7640   13.6410 C.2       1 SUB1        0.212
      4 C4         -4.6670    6.9100   12.7870 C.3       1 SUB1        0.034
      5 N1         -5.0980   -0.4120   16.2950 N.am      1 SUB1       -0.257
      6 N2         -3.3660    3.4000   15.3680 N.2       1 SUB1       -0.257
      7 N3         -3.7160    2.3010   16.0840 N.2       1 SUB1       -0.248
      8 N4         -4.1580    5.0620   14.1790 N.am      1 SUB1       -0.192
      9 O1         -5.4430    0.9180   18.4030 O.2       1 SUB1       -0.145
     10 O2         -7.2490    0.9930   16.8390 O.2       1 SUB1       -0.145
     11 O3         -6.3740    5.5610   13.7610 O.2       1 SUB1       -0.380
     12 S1         -5.7750    0.8600   16.9770 S.o2      1 SUB1        0.099
     13 S2         -5.9310    3.4180   15.3460 S.3       1 SUB1        0.087
     14 H41        -5.5244    7.4566   12.3673 H         1 SUB1        0.047
     15 H42        -4.0483    6.5140   11.9682 H         1 SUB1        0.047
     16 H43        -4.0645    7.5918   13.4051 H         1 SUB1        0.047
     17 H51        -5.3548   -1.3401   16.5929 H         1 SUB1        0.164
     18 H81        -3.2113    5.3299   14.0003 H         1 SUB1        0.241
     19 H52        -4.4185   -0.2892   15.5716 H         1 SUB1        0.164
@<TRIPOS>BOND
     1    1   13 1  
     2    1   12 1  
     3    1    7 2  
     4    7    6 1  
     5    6    2 2  
     6    2    8 am 
     7    2   13 1  
     8    8    3 am 
     9    3   11 2  
    10    3    4 1  
    11   12    5 1  
    12   12    9 2  
    13   12   10 2  
    14    4   14 1  
    15    4   15 1  
    16    4   16 1  
    17    5   17 1  
    18    8   18 1  
    19    5   19 1  
@<TRIPOS>SUBSTRUCTURE
     1 SUB1        1 GROUP

