### 
### Created by X-TOOL on Mon Oct 24 23:59:27 2005
### 

@<TRIPOS>MOLECULE
1f9g_ligand
   20    20     1     0     0
SMALL
GAST_HUCK


@<TRIPOS>ATOM
      1 C1          9.2520  -10.8070   32.3000 C.2       1 SUB1        0.254
      2 C2         10.3500   -9.7830   32.5730 C.2       1 SUB1        0.168
      3 C3          9.8060   -8.5820   32.8430 C.2       1 SUB1        0.143
      4 C4          8.3050   -8.7370   32.7540 C.3       1 SUB1        0.176
      5 C5          7.5930   -7.6330   31.9260 C.3       1 SUB1        0.122
      6 C6          6.1170   -7.6770   31.4470 C.3       1 SUB1        0.075
      7 O1          9.3290  -12.0140   32.0380 O.2       1 SUB1       -0.385
      8 O2         11.7040   -9.9980   32.5670 O.3       1 SUB1       -0.362
      9 O3         10.2070   -7.6800   33.6140 O.3       1 SUB1       -0.327
     10 O4          8.0370  -10.1470   32.4120 O.3       1 SUB1       -0.261
     11 O5          7.8940   -6.3130   32.4420 O.3       1 SUB1       -0.384
     12 O6          6.2230   -7.0890   30.0690 O.3       1 SUB1       -0.392
     13 H41         7.9179   -8.6010   33.7746 H         1 SUB1        0.089
     14 H51         8.1394   -7.6890   30.9730 H         1 SUB1        0.067
     15 H61         5.4679   -7.0680   32.0933 H         1 SUB1        0.059
     16 H62         5.7373   -8.7089   31.4139 H         1 SUB1        0.059
     17 H81        12.1534   -9.1859   32.7699 H         1 SUB1        0.228
     18 H91         9.6014   -6.9485   33.5859 H         1 SUB1        0.252
     19 H111        8.8315   -6.1648   32.4020 H         1 SUB1        0.210
     20 H121        5.3617   -7.0648   29.6691 H         1 SUB1        0.209
@<TRIPOS>BOND
     1    1   10 1  
     2    1    7 2  
     3    1    2 1  
     4    2    8 1  
     5    2    3 2  
     6    3    9 1  
     7    3    4 1  
     8    4   10 1  
     9    4    5 1  
    10    5   11 1  
    11    5    6 1  
    12    6   12 1  
    13    4   13 1  
    14    5   14 1  
    15    6   15 1  
    16    6   16 1  
    17    8   17 1  
    18    9   18 1  
    19   11   19 1  
    20   12   20 1  
@<TRIPOS>SUBSTRUCTURE
     1 SUB1        1 GROUP

