1f9g_ligand
  -I-interpret- 

 20 20  0  0  0  0  0  0  0  0999 V2000
    9.2520  -10.8070   32.3000 C   0  0  0  0  0
   10.3500   -9.7830   32.5730 C   0  0  0  0  0
    9.8060   -8.5820   32.8430 C   0  0  0  0  0
    8.3050   -8.7370   32.7540 C   0  0  0  0  0
    7.5930   -7.6330   31.9260 C   0  0  0  0  0
    6.1170   -7.6770   31.4470 C   0  0  0  0  0
    9.3290  -12.0140   32.0380 O   0  0  0  0  0
   11.7040   -9.9980   32.5670 O   0  0  0  0  0
   10.2070   -7.6800   33.6140 O   0  0  0  0  0
    8.0370  -10.1470   32.4120 O   0  0  0  0  0
    7.8940   -6.3130   32.4420 O   0  0  0  0  0
    6.2230   -7.0890   30.0690 O   0  0  0  0  0
    7.9179   -8.6010   33.7746 H   0  0  0  0  0
    8.1394   -7.6890   30.9730 H   0  0  0  0  0
    5.4679   -7.0680   32.0933 H   0  0  0  0  0
    5.7373   -8.7089   31.4139 H   0  0  0  0  0
   12.1534   -9.1859   32.7699 H   0  0  0  0  0
    9.6014   -6.9485   33.5859 H   0  0  0  0  0
    8.8315   -6.1648   32.4020 H   0  0  0  0  0
    5.3617   -7.0648   29.6691 H   0  0  0  0  0
  1 10  1  0  0  0
  1  7  2  0  0  0
  1  2  1  0  0  0
  2  8  1  0  0  0
  2  3  2  0  0  0
  3  9  1  0  0  0
  3  4  1  0  0  0
  4 10  1  0  0  0
  4  5  1  0  0  0
  5 11  1  0  0  0
  5  6  1  0  0  0
  6 12  1  0  0  0
  4 13  1  0  0  0
  5 14  1  0  0  0
  6 15  1  0  0  0
  6 16  1  0  0  0
  8 17  1  0  0  0
  9 18  1  0  0  0
 11 19  1  0  0  0
 12 20  1  0  0  0
M  END
$$$$
