### 
### Created by X-TOOL on Sun Jun  3 11:11:32 2007
### 

@<TRIPOS>MOLECULE
1sv3_ligand
   18    18     1     0     0
SMALL
GAST_HUCK


@<TRIPOS>ATOM
      1 C8         46.4200   30.7860    7.8740 C.3       1 SUB1        0.060
      2 O3         46.5350   30.4990    6.4750 O.3       1 SUB1       -0.319
      3 C5         47.5800   30.9340    5.6840 C.ar      1 SUB1        0.094
      4 C6         47.6250   30.5410    4.3510 C.ar      1 SUB1       -0.029
      5 C7         48.6570   30.9560    3.5140 C.ar      1 SUB1       -0.051
      6 C2         49.6670   31.7750    4.0070 C.ar      1 SUB1        0.063
      7 C3         49.6250   32.1760    5.3340 C.ar      1 SUB1       -0.051
      8 C4         48.5940   31.7570    6.1740 C.ar      1 SUB1       -0.029
      9 C1         50.7940   32.2310    3.1220 C.2       1 SUB1        0.369
     10 O1         51.6910   32.9540    3.5400 O.2       1 SUB1       -0.258
     11 O2         50.8170   31.8340    1.8630 O.2       1 SUB1       -0.258
     12 H          47.2844   30.3797    8.3992 H         1 SUB1        0.058
     13 H          46.3789   31.8654    8.0200 H         1 SUB1        0.058
     14 H          45.5095   30.3305    8.2634 H         1 SUB1        0.058
     15 H          46.8394   29.8975    3.9550 H         1 SUB1        0.055
     16 H          48.6734   30.6387    2.4713 H         1 SUB1        0.062
     17 H          50.4074   32.8265    5.7249 H         1 SUB1        0.062
     18 H          48.5804   32.0736    7.2169 H         1 SUB1        0.055
@<TRIPOS>BOND
     1    1    2 1  
     2    2    3 1  
     3    3    4 ar 
     4    3    8 ar 
     5    4    5 ar 
     6    5    6 ar 
     7    6    7 ar 
     8    6    9 1  
     9    7    8 ar 
    10    9   10 2  
    11    9   11 2  
    12    1   12 1  
    13    1   13 1  
    14    1   14 1  
    15    4   15 1  
    16    5   16 1  
    17    7   17 1  
    18    8   18 1  
@<TRIPOS>SUBSTRUCTURE
     1 SUB1        1 GROUP

