1sv3_ligand
  -I-interpret- 

 18 18  0  0  0  0  0  0  0  0999 V2000
   46.4200   30.7860    7.8740 C   0  0  0  0  0
   46.5350   30.4990    6.4750 O   0  0  0  0  0
   47.5800   30.9340    5.6840 C   0  0  0  0  0
   47.6250   30.5410    4.3510 C   0  0  0  0  0
   48.6570   30.9560    3.5140 C   0  0  0  0  0
   49.6670   31.7750    4.0070 C   0  0  0  0  0
   49.6250   32.1760    5.3340 C   0  0  0  0  0
   48.5940   31.7570    6.1740 C   0  0  0  0  0
   50.7940   32.2310    3.1220 C   0  0  0  0  0
   51.6910   32.9540    3.5400 O   0  0  0  0  0
   50.8170   31.8340    1.8630 O   0  5  0  0  0
   47.2844   30.3797    8.3992 H   0  0  0  0  0
   46.3789   31.8654    8.0200 H   0  0  0  0  0
   45.5095   30.3305    8.2634 H   0  0  0  0  0
   46.8394   29.8975    3.9550 H   0  0  0  0  0
   48.6734   30.6387    2.4713 H   0  0  0  0  0
   50.4074   32.8265    5.7249 H   0  0  0  0  0
   48.5804   32.0736    7.2169 H   0  0  0  0  0
  1  2  1  0  0  0
  2  3  1  0  0  0
  3  4  4  0  0  0
  3  8  4  0  0  0
  4  5  4  0  0  0
  5  6  4  0  0  0
  6  7  4  0  0  0
  6  9  1  0  0  0
  7  8  4  0  0  0
  9 10  2  0  0  0
  9 11  1  0  0  0
  1 12  1  0  0  0
  1 13  1  0  0  0
  1 14  1  0  0  0
  4 15  1  0  0  0
  5 16  1  0  0  0
  7 17  1  0  0  0
  8 18  1  0  0  0
M  END
$$$$
