### 
### Created by X-TOOL on Sun Jun  3 11:16:15 2007
### 

@<TRIPOS>MOLECULE
1zsr_ligand
  100   102     1     0     0
SMALL
GAST_HUCK


@<TRIPOS>ATOM
      1 O1         -9.3250   14.2990   30.1000 O.2       1 SUB1       -0.377
      2 C         -10.1740   14.9640   30.6740 C.2       1 SUB1        0.320
      3 O2        -10.1780   15.2960   32.0080 O.3       1 SUB1       -0.258
      4 CT         -8.9510   15.3790   32.8530 C.3       1 SUB1        0.090
      5 C1         -9.4190   15.8350   34.2200 C.3       1 SUB1       -0.032
      6 C2         -7.9810   16.3910   32.2420 C.3       1 SUB1       -0.032
      7 C3         -8.3160   13.9910   32.9410 C.3       1 SUB1       -0.032
      8 N         -11.2790   15.5450   30.0780 N.am      1 SUB1       -0.255
      9 CA        -11.6190   15.3290   28.6690 C.3       1 SUB1        0.084
     10 C         -11.2260   16.5350   27.7720 C.3       1 SUB1        0.119
     11 OS        -11.9520   17.6850   28.1510 O.3       1 SUB1       -0.384
     12 CB        -13.1210   15.0160   28.5300 C.3       1 SUB1        0.007
     13 CG        -13.5290   13.7230   29.1870 C.ar      1 SUB1       -0.041
     14 CD1       -14.5620   13.6940   30.1080 C.ar      1 SUB1       -0.060
     15 CD2       -12.8410   12.5390   28.9140 C.ar      1 SUB1       -0.060
     16 CE1       -14.9050   12.5130   30.7540 C.ar      1 SUB1       -0.069
     17 CE2       -13.1790   11.3490   29.5570 C.ar      1 SUB1       -0.069
     18 CZ        -14.2130   11.3390   30.4800 C.ar      1 SUB1       -0.069
     19 CM         -9.7150   16.8040   27.9000 C.3       1 SUB1       -0.002
     20 N          -9.3020   18.0070   27.1870 N.4       1 SUB1        0.250
     21 CA         -7.9240   17.9540   26.6820 C.3       1 SUB1        0.076
     22 C          -7.7960   16.9300   25.5580 C.2       1 SUB1        0.229
     23 O          -7.8200   15.7180   25.7950 O.2       1 SUB1       -0.391
     24 CB         -6.9330   17.5960   27.8050 C.3       1 SUB1        0.042
     25 CG         -5.5190   17.3930   27.3290 C.ar      1 SUB1       -0.035
     26 CD1        -4.7670   16.3230   27.7960 C.ar      1 SUB1       -0.060
     27 CD2        -4.9370   18.2760   26.4220 C.ar      1 SUB1       -0.060
     28 CE1        -3.4560   16.1260   27.3710 C.ar      1 SUB1       -0.069
     29 CE2        -3.6250   18.0880   25.9880 C.ar      1 SUB1       -0.069
     30 CZ         -2.8840   17.0070   26.4660 C.ar      1 SUB1       -0.069
     31 N          -7.6480   17.4310   24.3360 N.am      1 SUB1       -0.261
     32 CA         -7.5190   16.5800   23.1630 C.3       1 SUB1        0.133
     33 C          -6.6800   17.3070   22.1150 C.2       1 SUB1        0.204
     34 O          -6.9320   18.4700   21.7920 O.2       1 SUB1       -0.394
     35 CB         -8.9200   16.2570   22.6200 C.3       1 SUB1        0.004
     36 CG         -8.9870   15.2820   21.4480 C.3       1 SUB1        0.065
     37 CD         -8.4830   15.8760   20.1390 C.2       1 SUB1        0.346
     38 OE1        -8.6500   17.0990   19.9280 O.2       1 SUB1       -0.262
     39 OE2        -7.9350   15.1150   19.3110 O.2       1 SUB1       -0.262
     40 N          -5.6640   16.6320   21.5980 N.am      1 SUB1       -0.262
     41 CA         -4.8360   17.2410   20.5850 C.3       1 SUB1        0.140
     42 C          -4.5600   16.2460   19.4800 C.2       1 SUB1        0.201
     43 O          -4.2600   15.0850   19.7340 O.2       1 SUB1       -0.395
     44 CB         -3.5350   17.7640   21.2040 C.3       1 SUB1        0.021
     45 CG         -2.6720   16.7020   21.8240 C.ar      1 SUB1       -0.039
     46 CD1        -1.5800   16.1910   21.1410 C.ar      1 SUB1       -0.060
     47 CD2        -2.9270   16.2400   23.1110 C.ar      1 SUB1       -0.060
     48 CE1        -0.7470   15.2400   21.7320 C.ar      1 SUB1       -0.069
     49 CE2        -2.1010   15.2870   23.7090 C.ar      1 SUB1       -0.069
     50 CZ         -1.0080   14.7890   23.0170 C.ar      1 SUB1       -0.069
     51 N          -4.6900   16.6950   18.2440 N.am      1 SUB1       -0.299
     52 H         -10.1571   15.1306   34.6036 H         1 SUB1        0.026
     53 H          -8.5673   15.8766   34.8990 H         1 SUB1        0.026
     54 H          -9.8681   16.8247   34.1374 H         1 SUB1        0.026
     55 H          -7.0866   16.4550   32.8617 H         1 SUB1        0.026
     56 H          -7.7064   16.0685   31.2377 H         1 SUB1        0.026
     57 H          -8.4610   17.3684   32.1926 H         1 SUB1        0.026
     58 H          -8.0435   13.6535   31.9411 H         1 SUB1        0.026
     59 H          -7.4237   14.0400   33.5651 H         1 SUB1        0.026
     60 H          -9.0297   13.2935   33.3794 H         1 SUB1        0.026
     61 H         -11.8802   16.1468   30.6409 H         1 SUB1        0.187
     62 H         -11.0382   14.4749   28.3207 H         1 SUB1        0.061
     63 H         -11.4647   16.2974   26.7353 H         1 SUB1        0.067
     64 H         -11.6993   18.4212   27.5891 H         1 SUB1        0.210
     65 H         -13.3397   14.9260   27.4660 H         1 SUB1        0.045
     66 H         -13.6699   15.8200   29.0204 H         1 SUB1        0.045
     67 H         -15.1126   14.6084   30.3289 H         1 SUB1        0.056
     68 H         -12.0281   12.5452   28.1879 H         1 SUB1        0.056
     69 H         -15.7196   12.5069   31.4782 H         1 SUB1        0.060
     70 H         -12.6333   10.4319   29.3352 H         1 SUB1        0.060
     71 H         -14.4826   10.4137   30.9892 H         1 SUB1        0.056
     72 H          -9.1838   15.9564   27.4671 H         1 SUB1        0.084
     73 H          -9.4855   16.9427   28.9565 H         1 SUB1        0.084
     74 H          -9.3545   18.7839   27.8459 H         1 SUB1        0.204
     75 H          -9.9177   18.1085   26.3801 H         1 SUB1        0.204
     76 H          -7.6830   18.9451   26.2975 H         1 SUB1        0.112
     77 H          -7.2658   16.6551   28.2433 H         1 SUB1        0.051
     78 H          -6.9224   18.4304   28.5062 H         1 SUB1        0.051
     79 H          -5.2105   15.6259   28.5070 H         1 SUB1        0.056
     80 H          -5.5129   19.1224   26.0478 H         1 SUB1        0.056
     81 H          -2.8805   15.2810   27.7489 H         1 SUB1        0.060
     82 H          -3.1797   18.7840   25.2771 H         1 SUB1        0.060
     83 H          -1.8585   16.8554   26.1291 H         1 SUB1        0.056
     84 H          -7.6241   18.4437   24.2167 H         1 SUB1        0.189
     85 H          -7.0232   15.6439   23.4199 H         1 SUB1        0.080
     86 H          -9.3263   17.1994   22.2526 H         1 SUB1        0.033
     87 H          -9.4595   15.7820   23.4394 H         1 SUB1        0.033
     88 H         -10.0330   15.0108   21.3051 H         1 SUB1        0.049
     89 H          -8.3495   14.4318   21.6905 H         1 SUB1        0.049
     90 H          -5.4672   15.6829   21.9156 H         1 SUB1        0.189
     91 H          -5.3630   18.0917   20.1529 H         1 SUB1        0.082
     92 H          -3.8143   18.4542   22.0000 H         1 SUB1        0.047
     93 H          -2.9566   18.2162   20.3984 H         1 SUB1        0.047
     94 H          -1.3689   16.5363   20.1289 H         1 SUB1        0.056
     95 H          -3.7846   16.6280   23.6607 H         1 SUB1        0.056
     96 H           0.1103   14.8511   21.1825 H         1 SUB1        0.060
     97 H          -2.3150   14.9350   24.7182 H         1 SUB1        0.060
     98 H          -0.3575   14.0472   23.4803 H         1 SUB1        0.056
     99 H          -4.5391   16.0668   17.4547 H         1 SUB1        0.182
    100 H          -4.9413   17.6697   18.0793 H         1 SUB1        0.182
@<TRIPOS>BOND
     1    1    2 2  
     2    2    3 1  
     3    2    8 am 
     4    3    4 1  
     5    4    5 1  
     6    4    6 1  
     7    4    7 1  
     8    8    9 1  
     9    9   10 1  
    10    9   12 1  
    11   10   11 1  
    12   10   19 1  
    13   12   13 1  
    14   13   14 ar 
    15   13   15 ar 
    16   14   16 ar 
    17   15   17 ar 
    18   16   18 ar 
    19   17   18 ar 
    20   19   20 1  
    21   20   21 1  
    22   21   22 1  
    23   21   24 1  
    24   22   23 2  
    25   22   31 am 
    26   24   25 1  
    27   25   26 ar 
    28   25   27 ar 
    29   26   28 ar 
    30   27   29 ar 
    31   28   30 ar 
    32   29   30 ar 
    33   31   32 1  
    34   32   33 1  
    35   32   35 1  
    36   33   34 2  
    37   33   40 am 
    38   35   36 1  
    39   36   37 1  
    40   37   38 2  
    41   37   39 2  
    42   40   41 1  
    43   41   42 1  
    44   41   44 1  
    45   42   43 2  
    46   42   51 am 
    47   44   45 1  
    48   45   46 ar 
    49   45   47 ar 
    50   46   48 ar 
    51   47   49 ar 
    52   48   50 ar 
    53   49   50 ar 
    54    5   52 1  
    55    5   53 1  
    56    5   54 1  
    57    6   55 1  
    58    6   56 1  
    59    6   57 1  
    60    7   58 1  
    61    7   59 1  
    62    7   60 1  
    63    8   61 1  
    64    9   62 1  
    65   10   63 1  
    66   11   64 1  
    67   12   65 1  
    68   12   66 1  
    69   14   67 1  
    70   15   68 1  
    71   16   69 1  
    72   17   70 1  
    73   18   71 1  
    74   19   72 1  
    75   19   73 1  
    76   20   74 1  
    77   20   75 1  
    78   21   76 1  
    79   24   77 1  
    80   24   78 1  
    81   26   79 1  
    82   27   80 1  
    83   28   81 1  
    84   29   82 1  
    85   30   83 1  
    86   31   84 1  
    87   32   85 1  
    88   35   86 1  
    89   35   87 1  
    90   36   88 1  
    91   36   89 1  
    92   40   90 1  
    93   41   91 1  
    94   44   92 1  
    95   44   93 1  
    96   46   94 1  
    97   47   95 1  
    98   48   96 1  
    99   49   97 1  
   100   50   98 1  
   101   51   99 1  
   102   51  100 1  
@<TRIPOS>SUBSTRUCTURE
     1 SUB1        1 GROUP

