1zsr_ligand
  -I-interpret- 

100102  0  0  0  0  0  0  0  0999 V2000
   -9.3250   14.2990   30.1000 O   0  0  0  0  0
  -10.1740   14.9640   30.6740 C   0  0  0  0  0
  -10.1780   15.2960   32.0080 O   0  0  0  0  0
   -8.9510   15.3790   32.8530 C   0  0  0  0  0
   -9.4190   15.8350   34.2200 C   0  0  0  0  0
   -7.9810   16.3910   32.2420 C   0  0  0  0  0
   -8.3160   13.9910   32.9410 C   0  0  0  0  0
  -11.2790   15.5450   30.0780 N   0  0  0  0  0
  -11.6190   15.3290   28.6690 C   0  0  0  0  0
  -11.2260   16.5350   27.7720 C   0  0  0  0  0
  -11.9520   17.6850   28.1510 O   0  0  0  0  0
  -13.1210   15.0160   28.5300 C   0  0  0  0  0
  -13.5290   13.7230   29.1870 C   0  0  0  0  0
  -14.5620   13.6940   30.1080 C   0  0  0  0  0
  -12.8410   12.5390   28.9140 C   0  0  0  0  0
  -14.9050   12.5130   30.7540 C   0  0  0  0  0
  -13.1790   11.3490   29.5570 C   0  0  0  0  0
  -14.2130   11.3390   30.4800 C   0  0  0  0  0
   -9.7150   16.8040   27.9000 C   0  0  0  0  0
   -9.3020   18.0070   27.1870 N   0  3  0  0  0
   -7.9240   17.9540   26.6820 C   0  0  0  0  0
   -7.7960   16.9300   25.5580 C   0  0  0  0  0
   -7.8200   15.7180   25.7950 O   0  0  0  0  0
   -6.9330   17.5960   27.8050 C   0  0  0  0  0
   -5.5190   17.3930   27.3290 C   0  0  0  0  0
   -4.7670   16.3230   27.7960 C   0  0  0  0  0
   -4.9370   18.2760   26.4220 C   0  0  0  0  0
   -3.4560   16.1260   27.3710 C   0  0  0  0  0
   -3.6250   18.0880   25.9880 C   0  0  0  0  0
   -2.8840   17.0070   26.4660 C   0  0  0  0  0
   -7.6480   17.4310   24.3360 N   0  0  0  0  0
   -7.5190   16.5800   23.1630 C   0  0  0  0  0
   -6.6800   17.3070   22.1150 C   0  0  0  0  0
   -6.9320   18.4700   21.7920 O   0  0  0  0  0
   -8.9200   16.2570   22.6200 C   0  0  0  0  0
   -8.9870   15.2820   21.4480 C   0  0  0  0  0
   -8.4830   15.8760   20.1390 C   0  0  0  0  0
   -8.6500   17.0990   19.9280 O   0  5  0  0  0
   -7.9350   15.1150   19.3110 O   0  0  0  0  0
   -5.6640   16.6320   21.5980 N   0  0  0  0  0
   -4.8360   17.2410   20.5850 C   0  0  0  0  0
   -4.5600   16.2460   19.4800 C   0  0  0  0  0
   -4.2600   15.0850   19.7340 O   0  0  0  0  0
   -3.5350   17.7640   21.2040 C   0  0  0  0  0
   -2.6720   16.7020   21.8240 C   0  0  0  0  0
   -1.5800   16.1910   21.1410 C   0  0  0  0  0
   -2.9270   16.2400   23.1110 C   0  0  0  0  0
   -0.7470   15.2400   21.7320 C   0  0  0  0  0
   -2.1010   15.2870   23.7090 C   0  0  0  0  0
   -1.0080   14.7890   23.0170 C   0  0  0  0  0
   -4.6900   16.6950   18.2440 N   0  0  0  0  0
  -10.1571   15.1306   34.6036 H   0  0  0  0  0
   -8.5673   15.8766   34.8990 H   0  0  0  0  0
   -9.8681   16.8247   34.1374 H   0  0  0  0  0
   -7.0866   16.4550   32.8617 H   0  0  0  0  0
   -7.7064   16.0685   31.2377 H   0  0  0  0  0
   -8.4610   17.3684   32.1926 H   0  0  0  0  0
   -8.0435   13.6535   31.9411 H   0  0  0  0  0
   -7.4237   14.0400   33.5651 H   0  0  0  0  0
   -9.0297   13.2935   33.3794 H   0  0  0  0  0
  -11.8802   16.1468   30.6409 H   0  0  0  0  0
  -11.0382   14.4749   28.3207 H   0  0  0  0  0
  -11.4647   16.2974   26.7353 H   0  0  0  0  0
  -11.6993   18.4212   27.5891 H   0  0  0  0  0
  -13.3397   14.9260   27.4660 H   0  0  0  0  0
  -13.6699   15.8200   29.0204 H   0  0  0  0  0
  -15.1126   14.6084   30.3289 H   0  0  0  0  0
  -12.0281   12.5452   28.1879 H   0  0  0  0  0
  -15.7196   12.5069   31.4782 H   0  0  0  0  0
  -12.6333   10.4319   29.3352 H   0  0  0  0  0
  -14.4826   10.4137   30.9892 H   0  0  0  0  0
   -9.1838   15.9564   27.4671 H   0  0  0  0  0
   -9.4855   16.9427   28.9565 H   0  0  0  0  0
   -9.3545   18.7839   27.8459 H   0  0  0  0  0
   -9.9177   18.1085   26.3801 H   0  0  0  0  0
   -7.6830   18.9451   26.2975 H   0  0  0  0  0
   -7.2658   16.6551   28.2433 H   0  0  0  0  0
   -6.9224   18.4304   28.5062 H   0  0  0  0  0
   -5.2105   15.6259   28.5070 H   0  0  0  0  0
   -5.5129   19.1224   26.0478 H   0  0  0  0  0
   -2.8805   15.2810   27.7489 H   0  0  0  0  0
   -3.1797   18.7840   25.2771 H   0  0  0  0  0
   -1.8585   16.8554   26.1291 H   0  0  0  0  0
   -7.6241   18.4437   24.2167 H   0  0  0  0  0
   -7.0232   15.6439   23.4199 H   0  0  0  0  0
   -9.3263   17.1994   22.2526 H   0  0  0  0  0
   -9.4595   15.7820   23.4394 H   0  0  0  0  0
  -10.0330   15.0108   21.3051 H   0  0  0  0  0
   -8.3495   14.4318   21.6905 H   0  0  0  0  0
   -5.4672   15.6829   21.9156 H   0  0  0  0  0
   -5.3630   18.0917   20.1529 H   0  0  0  0  0
   -3.8143   18.4542   22.0000 H   0  0  0  0  0
   -2.9566   18.2162   20.3984 H   0  0  0  0  0
   -1.3689   16.5363   20.1289 H   0  0  0  0  0
   -3.7846   16.6280   23.6607 H   0  0  0  0  0
    0.1103   14.8511   21.1825 H   0  0  0  0  0
   -2.3150   14.9350   24.7182 H   0  0  0  0  0
   -0.3575   14.0472   23.4803 H   0  0  0  0  0
   -4.5391   16.0668   17.4547 H   0  0  0  0  0
   -4.9413   17.6697   18.0793 H   0  0  0  0  0
  1  2  2  0  0  0
  2  3  1  0  0  0
  2  8  1  0  0  0
  3  4  1  0  0  0
  4  5  1  0  0  0
  4  6  1  0  0  0
  4  7  1  0  0  0
  8  9  1  0  0  0
  9 10  1  0  0  0
  9 12  1  0  0  0
 10 11  1  0  0  0
 10 19  1  0  0  0
 12 13  1  0  0  0
 13 14  4  0  0  0
 13 15  4  0  0  0
 14 16  4  0  0  0
 15 17  4  0  0  0
 16 18  4  0  0  0
 17 18  4  0  0  0
 19 20  1  0  0  0
 20 21  1  0  0  0
 21 22  1  0  0  0
 21 24  1  0  0  0
 22 23  2  0  0  0
 22 31  1  0  0  0
 24 25  1  0  0  0
 25 26  4  0  0  0
 25 27  4  0  0  0
 26 28  4  0  0  0
 27 29  4  0  0  0
 28 30  4  0  0  0
 29 30  4  0  0  0
 31 32  1  0  0  0
 32 33  1  0  0  0
 32 35  1  0  0  0
 33 34  2  0  0  0
 33 40  1  0  0  0
 35 36  1  0  0  0
 36 37  1  0  0  0
 37 38  1  0  0  0
 37 39  2  0  0  0
 40 41  1  0  0  0
 41 42  1  0  0  0
 41 44  1  0  0  0
 42 43  2  0  0  0
 42 51  1  0  0  0
 44 45  1  0  0  0
 45 46  4  0  0  0
 45 47  4  0  0  0
 46 48  4  0  0  0
 47 49  4  0  0  0
 48 50  4  0  0  0
 49 50  4  0  0  0
  5 52  1  0  0  0
  5 53  1  0  0  0
  5 54  1  0  0  0
  6 55  1  0  0  0
  6 56  1  0  0  0
  6 57  1  0  0  0
  7 58  1  0  0  0
  7 59  1  0  0  0
  7 60  1  0  0  0
  8 61  1  0  0  0
  9 62  1  0  0  0
 10 63  1  0  0  0
 11 64  1  0  0  0
 12 65  1  0  0  0
 12 66  1  0  0  0
 14 67  1  0  0  0
 15 68  1  0  0  0
 16 69  1  0  0  0
 17 70  1  0  0  0
 18 71  1  0  0  0
 19 72  1  0  0  0
 19 73  1  0  0  0
 20 74  1  0  0  0
 20 75  1  0  0  0
 21 76  1  0  0  0
 24 77  1  0  0  0
 24 78  1  0  0  0
 26 79  1  0  0  0
 27 80  1  0  0  0
 28 81  1  0  0  0
 29 82  1  0  0  0
 30 83  1  0  0  0
 31 84  1  0  0  0
 32 85  1  0  0  0
 35 86  1  0  0  0
 35 87  1  0  0  0
 36 88  1  0  0  0
 36 89  1  0  0  0
 40 90  1  0  0  0
 41 91  1  0  0  0
 44 92  1  0  0  0
 44 93  1  0  0  0
 46 94  1  0  0  0
 47 95  1  0  0  0
 48 96  1  0  0  0
 49 97  1  0  0  0
 50 98  1  0  0  0
 51 99  1  0  0  0
 51100  1  0  0  0
M  END
$$$$
