### 
### Created by X-TOOL on Mon Oct 24 22:41:42 2005
### 

@<TRIPOS>MOLECULE
1hn2_ligand
   26    28     1     0     0
SMALL
GAST_HUCK


@<TRIPOS>ATOM
      1 C1          0.5210   -0.6440    5.5400 C.ar      1 SUB1       -0.030
      2 C2          1.2810   -0.2490    4.3830 C.ar      1 SUB1       -0.073
      3 C3         -0.8640   -0.3470    5.6250 C.ar      1 SUB1        0.010
      4 C4          0.6220    0.4600    3.3030 C.ar      1 SUB1       -0.080
      5 C5         -1.5100    0.3530    4.5630 C.ar      1 SUB1        0.051
      6 C6         -0.7930    0.7480    3.4210 C.ar      1 SUB1       -0.047
      7 C7         -1.1380   -2.5280   10.0370 C.ar      1 SUB1       -0.062
      8 C8          0.3580   -2.8580    9.9340 C.ar      1 SUB1       -0.062
      9 C9         -1.7650   -1.8280    8.9860 C.ar      1 SUB1       -0.055
     10 C10         1.0440   -2.4380    8.7800 C.ar      1 SUB1       -0.056
     11 C11        -1.0190   -1.4310    7.8380 C.ar      1 SUB1       -0.018
     12 C12         0.3780   -1.7370    7.7450 C.ar      1 SUB1       -0.022
     13 C13         1.2110   -1.3360    6.5530 C.ar      1 SUB1       -0.054
     14 C14        -1.7230   -0.6780    6.7090 C.ar      1 SUB1       -0.043
     15 N1         -2.9840    0.6900    4.6120 N.pl3     1 SUB1       -0.331
     16 H21         2.3382   -0.4798    4.3194 H         1 SUB1        0.045
     17 H41         1.1773    0.7684    2.4246 H         1 SUB1        0.057
     18 H61        -1.3030    1.2728    2.6213 H         1 SUB1        0.045
     19 H71        -1.7064   -2.8302   10.9091 H         1 SUB1        0.061
     20 H81         0.8685   -3.3966   10.7242 H         1 SUB1        0.062
     21 H91        -2.8206   -1.5903    9.0513 H         1 SUB1        0.063
     22 H101        2.1015   -2.6548    8.6810 H         1 SUB1        0.061
     23 H131        2.2681   -1.5650    6.4815 H         1 SUB1        0.058
     24 H141       -2.7758   -0.4211    6.7325 H         1 SUB1        0.066
     25 H151       -3.4228    1.1965    3.8298 H         1 SUB1        0.177
     26 H152       -3.5488    0.4130    5.4276 H         1 SUB1        0.177
@<TRIPOS>BOND
     1    1   13 ar 
     2    1    3 ar 
     3    1    2 ar 
     4    2    4 ar 
     5    4    6 ar 
     6    6    5 ar 
     7    5   15 1  
     8    5    3 ar 
     9    3   14 ar 
    10   14   11 ar 
    11   11   12 ar 
    12   11    9 ar 
    13    9    7 ar 
    14    7    8 ar 
    15    8   10 ar 
    16   10   12 ar 
    17   12   13 ar 
    18    2   16 1  
    19    4   17 1  
    20    6   18 1  
    21    7   19 1  
    22    8   20 1  
    23    9   21 1  
    24   10   22 1  
    25   13   23 1  
    26   14   24 1  
    27   15   25 1  
    28   15   26 1  
@<TRIPOS>SUBSTRUCTURE
     1 SUB1        1 GROUP

