1fzm_ligand
  -I-interpret- 

135136  0  0  0  0  0  0  0  0999 V2000
   50.4940   57.5700    4.4450 N   0  3  0  0  0
   49.1170   58.1030    4.2320 C   0  0  0  0  0
   48.6510   57.9380    2.7910 C   0  0  0  0  0
   49.4540   57.9230    1.8570 O   0  0  0  0  0
   49.0360   59.5750    4.6570 C   0  0  0  0  0
   49.9950   60.5080    3.9670 C   0  0  0  0  0
   49.6730   61.9510    4.3400 C   0  0  0  0  0
   49.3790   62.0890    5.7660 N   0  0  0  0  0
   48.9820   63.2210    6.3450 C   0  3  0  0  0
   48.8290   64.3240    5.6230 N   0  0  0  0  0
   48.7310   63.2510    7.6480 N   0  0  0  0  0
   47.3350   57.8330    2.6220 N   0  0  0  0  0
   46.7590   57.6070    1.3120 C   0  0  0  0  0
   46.6870   58.7250    0.2950 C   0  0  0  0  0
   46.9080   59.8920    0.5970 O   0  0  0  0  0
   46.3340   58.3390   -0.9240 N   0  0  0  0  0
   46.2180   59.2450   -2.0550 C   0  0  0  0  0
   44.7570   59.6140   -2.2900 C   0  0  0  0  0
   43.8500   58.9310   -1.8160 O   0  0  0  0  0
   46.7610   58.5480   -3.3070 C   0  0  0  0  0
   46.9150   59.4030   -4.5420 C   0  0  0  0  0
   47.8130   60.4790   -4.5620 C   0  0  0  0  0
   46.2140   59.1090   -5.7130 C   0  0  0  0  0
   48.0110   61.2270   -5.7080 C   0  0  0  0  0
   46.4040   59.8580   -6.8740 C   0  0  0  0  0
   47.3130   60.9210   -6.8590 C   0  0  0  0  0
   47.5280   61.6670   -7.9930 O   0  0  0  0  0
   44.5410   60.7150   -2.9990 N   0  0  0  0  0
   43.1920   61.1390   -3.3690 C   0  0  0  0  0
   43.1760   60.8270   -4.8600 C   0  0  0  0  0
   43.8280   61.5040   -5.6570 O   0  0  0  0  0
   42.9630   62.6550   -3.1320 C   0  0  0  0  0
   41.6090   63.0660   -3.6950 C   0  0  0  0  0
   43.0140   62.9600   -1.6420 C   0  0  0  0  0
   42.4530   59.7710   -5.2350 N   0  0  0  0  0
   42.3960   59.3320   -6.6230 C   0  0  0  0  0
   41.6610   60.2220   -7.6180 C   0  0  0  0  0
   40.7240   60.9360   -7.2670 O   0  0  0  0  0
   41.8360   57.9020   -6.6920 C   0  0  0  0  0
   42.6530   56.9240   -5.8710 C   0  0  0  0  0
   42.4300   56.7770   -4.5090 C   0  0  0  0  0
   43.6990   56.2020   -6.4480 C   0  0  0  0  0
   43.2320   55.9390   -3.7290 C   0  0  0  0  0
   44.5090   55.3600   -5.6760 C   0  0  0  0  0
   44.2710   55.2400   -4.3260 C   0  0  0  0  0
   45.0800   54.4470   -3.5450 O   0  0  0  0  0
   42.1170   60.1610   -8.8640 N   0  0  0  0  0
   41.5600   60.9320   -9.9750 C   0  0  0  0  0
   40.4710   60.1370  -10.7000 C   0  0  0  0  0
   40.6090   58.9290  -10.8980 O   0  0  0  0  0
   42.6810   61.2750  -10.9620 C   0  0  0  0  0
   42.2720   62.1910  -12.1010 C   0  0  0  0  0
   41.8830   63.5670  -11.6050 C   0  0  0  0  0
   40.7090   63.9470  -11.6300 O   0  0  0  0  0
   42.8690   64.3180  -11.1300 N   0  0  0  0  0
   39.3980   60.8120  -11.1050 N   0  0  0  0  0
   38.3220   60.1280  -11.8130 C   0  0  0  0  0
   38.6950   59.5160  -13.1590 C   0  0  0  0  0
   39.5040   60.0710  -13.9040 O   0  0  0  0  0
   38.0950   58.3680  -13.4800 N   0  0  0  0  0
   38.3660   57.6730  -14.7430 C   0  0  0  0  0
   37.6520   58.2980  -15.9450 C   0  0  0  0  0
   36.7000   59.0840  -15.7280 O   0  0  0  0  0
   37.9480   56.2010  -14.6330 C   0  0  0  0  0
   38.5740   55.3810  -13.5120 C   0  0  0  0  0
   38.0060   53.9610  -13.5490 C   0  0  0  0  0
   40.0940   55.3700  -13.6800 C   0  0  0  0  0
   38.0400   57.9840  -17.0960 O   0  5  0  0  0
   50.8678   57.2446    3.5673 H   0  0  0  0  0
   48.4334   57.5262    4.8723 H   0  0  0  0  0
   49.2338   59.6260    5.7379 H   0  0  0  0  0
   48.0147   59.9296    4.4541 H   0  0  0  0  0
   49.9048   60.3839    2.8778 H   0  0  0  0  0
   51.0228   60.2711    4.2791 H   0  0  0  0  0
   48.7974   62.2816    3.7620 H   0  0  0  0  0
   50.5370   62.5847    4.0913 H   0  0  0  0  0
   49.4860   61.2558    6.3620 H   0  0  0  0  0
   49.0174   64.3070    4.6105 H   0  0  0  0  0
   48.5218   65.1970    6.0751 H   0  0  0  0  0
   48.8431   62.3977    8.2138 H   0  0  0  0  0
   48.4241   64.1276    8.0933 H   0  0  0  0  0
   46.7315   57.9117    3.4155 H   0  0  0  0  0
   47.3420   56.7978    0.8482 H   0  0  0  0  0
   45.7263   57.2663    1.4777 H   0  0  0  0  0
   46.1365   57.3701   -1.0734 H   0  0  0  0  0
   46.7993   60.1572   -1.8553 H   0  0  0  0  0
   46.0754   57.7242   -3.5545 H   0  0  0  0  0
   47.7513   58.1387   -3.0585 H   0  0  0  0  0
   48.3627   60.7295   -3.6620 H   0  0  0  0  0
   45.5101   58.2846   -5.7199 H   0  0  0  0  0
   48.7134   62.0526   -5.7026 H   0  0  0  0  0
   45.8539   59.6193   -7.7770 H   0  0  0  0  0
   46.9796   61.3383   -8.6956 H   0  0  0  0  0
   45.3218   61.2691   -3.2877 H   0  0  0  0  0
   42.4294   60.5627   -2.8247 H   0  0  0  0  0
   43.7540   63.2231   -3.6434 H   0  0  0  0  0
   41.5864   62.8681   -4.7768 H   0  0  0  0  0
   41.4475   64.1391   -3.5152 H   0  0  0  0  0
   40.8151   62.4878   -3.1997 H   0  0  0  0  0
   42.2227   62.3972   -1.1253 H   0  0  0  0  0
   42.8611   64.0376   -1.4828 H   0  0  0  0  0
   43.9950   62.6657   -1.2408 H   0  0  0  0  0
   41.9354   59.2663   -4.5441 H   0  0  0  0  0
   43.4396   59.2939   -6.9687 H   0  0  0  0  0
   41.8383   57.5714   -7.7411 H   0  0  0  0  0
   40.8039   57.9075   -6.3116 H   0  0  0  0  0
   41.6184   57.3225   -4.0412 H   0  0  0  0  0
   43.8875   56.2946   -7.5115 H   0  0  0  0  0
   43.0437   55.8362   -2.6664 H   0  0  0  0  0
   45.3180   54.8065   -6.1388 H   0  0  0  0  0
   45.7403   54.0359   -4.0904 H   0  0  0  0  0
   42.8869   59.5517   -9.0537 H   0  0  0  0  0
   41.1230   61.8621   -9.5825 H   0  0  0  0  0
   43.0533   60.3354  -11.3962 H   0  0  0  0  0
   43.4905   61.7663  -10.4023 H   0  0  0  0  0
   41.4134   61.7458  -12.6250 H   0  0  0  0  0
   43.1164   62.2898  -12.7990 H   0  0  0  0  0
   43.8043   63.9644  -11.1151 H   0  0  0  0  0
   42.6766   65.2374  -10.7871 H   0  0  0  0  0
   39.3292   61.7929  -10.9230 H   0  0  0  0  0
   37.9532   59.3190  -11.1653 H   0  0  0  0  0
   37.5156   60.8560  -11.9854 H   0  0  0  0  0
   37.4396   57.9687  -12.8389 H   0  0  0  0  0
   39.4494   57.7200  -14.9273 H   0  0  0  0  0
   38.2055   55.7120  -15.5841 H   0  0  0  0  0
   36.8574   56.1764  -14.4916 H   0  0  0  0  0
   38.3255   55.8399  -12.5437 H   0  0  0  0  0
   36.9164   53.9981  -13.4032 H   0  0  0  0  0
   38.4630   53.3622  -12.7474 H   0  0  0  0  0
   38.2302   53.5016  -14.5230 H   0  0  0  0  0
   40.3527   54.9133  -14.6467 H   0  0  0  0  0
   40.5487   54.7869  -12.8656 H   0  0  0  0  0
   40.4739   56.4018  -13.6485 H   0  0  0  0  0
   50.4605   56.8048    5.1002 H   0  0  0  0  0
   51.0841   58.3005    4.8113 H   0  0  0  0  0
  3  2  1  0  0  0
  2  5  1  0  0  0
  2  1  1  0  0  0
  5  6  1  0  0  0
  6  7  1  0  0  0
  7  8  1  0  0  0
  8  9  1  0  0  0
  9 10  1  0  0  0
  9 11  1  0  0  0
  3  4  2  0  0  0
 14 13  1  0  0  0
 13 12  1  0  0  0
 14 15  2  0  0  0
 18 17  1  0  0  0
 17 20  1  0  0  0
 17 16  1  0  0  0
 20 21  1  0  0  0
 21 23  4  0  0  0
 21 22  4  0  0  0
 22 24  4  0  0  0
 24 26  4  0  0  0
 26 27  1  0  0  0
 25 26  4  0  0  0
 23 25  4  0  0  0
 18 19  2  0  0  0
 30 29  1  0  0  0
 29 32  1  0  0  0
 29 28  1  0  0  0
 32 33  1  0  0  0
 32 34  1  0  0  0
 30 31  2  0  0  0
 37 36  1  0  0  0
 36 39  1  0  0  0
 36 35  1  0  0  0
 39 40  1  0  0  0
 40 42  4  0  0  0
 40 41  4  0  0  0
 41 43  4  0  0  0
 43 45  4  0  0  0
 45 46  1  0  0  0
 44 45  4  0  0  0
 42 44  4  0  0  0
 37 38  2  0  0  0
 49 48  1  0  0  0
 48 51  1  0  0  0
 48 47  1  0  0  0
 51 52  1  0  0  0
 52 53  1  0  0  0
 53 54  2  0  0  0
 53 55  1  0  0  0
 49 50  2  0  0  0
 58 57  1  0  0  0
 57 56  1  0  0  0
 58 59  2  0  0  0
 61 62  1  0  0  0
 61 64  1  0  0  0
 60 61  1  0  0  0
 64 65  1  0  0  0
 65 67  1  0  0  0
 65 66  1  0  0  0
 62 68  1  0  0  0
 62 63  2  0  0  0
 12  3  1  0  0  0
 16 14  1  0  0  0
 28 18  1  0  0  0
 35 30  1  0  0  0
 47 37  1  0  0  0
 56 49  1  0  0  0
 58 60  1  0  0  0
  1 69  1  0  0  0
  2 70  1  0  0  0
  5 71  1  0  0  0
  5 72  1  0  0  0
  6 73  1  0  0  0
  6 74  1  0  0  0
  7 75  1  0  0  0
  7 76  1  0  0  0
  8 77  1  0  0  0
 10 78  1  0  0  0
 10 79  1  0  0  0
 11 80  1  0  0  0
 11 81  1  0  0  0
 12 82  1  0  0  0
 13 83  1  0  0  0
 13 84  1  0  0  0
 16 85  1  0  0  0
 17 86  1  0  0  0
 20 87  1  0  0  0
 20 88  1  0  0  0
 22 89  1  0  0  0
 23 90  1  0  0  0
 24 91  1  0  0  0
 25 92  1  0  0  0
 27 93  1  0  0  0
 28 94  1  0  0  0
 29 95  1  0  0  0
 32 96  1  0  0  0
 33 97  1  0  0  0
 33 98  1  0  0  0
 33 99  1  0  0  0
 34100  1  0  0  0
 34101  1  0  0  0
 34102  1  0  0  0
 35103  1  0  0  0
 36104  1  0  0  0
 39105  1  0  0  0
 39106  1  0  0  0
 41107  1  0  0  0
 42108  1  0  0  0
 43109  1  0  0  0
 44110  1  0  0  0
 46111  1  0  0  0
 47112  1  0  0  0
 48113  1  0  0  0
 51114  1  0  0  0
 51115  1  0  0  0
 52116  1  0  0  0
 52117  1  0  0  0
 55118  1  0  0  0
 55119  1  0  0  0
 56120  1  0  0  0
 57121  1  0  0  0
 57122  1  0  0  0
 60123  1  0  0  0
 61124  1  0  0  0
 64125  1  0  0  0
 64126  1  0  0  0
 65127  1  0  0  0
 66128  1  0  0  0
 66129  1  0  0  0
 66130  1  0  0  0
 67131  1  0  0  0
 67132  1  0  0  0
 67133  1  0  0  0
  1134  1  0  0  0
  1135  1  0  0  0
M  END
$$$$
