### 
### Created by X-TOOL on Mon Oct 24 22:41:46 2005
### 

@<TRIPOS>MOLECULE
1fzm_ligand
  135   136     1     0     0
SMALL
GAST_HUCK


@<TRIPOS>ATOM
      1 N          50.4940   57.5700    4.4450 N.4       1 SUB1        0.238
      2 CA         49.1170   58.1030    4.2320 C.3       1 SUB1        0.065
      3 C          48.6510   57.9380    2.7910 C.2       1 SUB1        0.227
      4 O          49.4540   57.9230    1.8570 O.2       1 SUB1       -0.391
      5 CB         49.0360   59.5750    4.6570 C.3       1 SUB1        0.009
      6 CG         49.9950   60.5080    3.9670 C.3       1 SUB1       -0.026
      7 CD         49.6730   61.9510    4.3400 C.3       1 SUB1        0.051
      8 NE         49.3790   62.0890    5.7660 N.pl3     1 SUB1       -0.170
      9 CZ         48.9820   63.2210    6.3450 C.cat     1 SUB1        0.387
     10 NH1        48.8290   64.3240    5.6230 N.pl3     1 SUB1       -0.183
     11 NH2        48.7310   63.2510    7.6480 N.pl3     1 SUB1       -0.183
     12 N          47.3350   57.8330    2.6220 N.am      1 SUB1       -0.264
     13 CA         46.7590   57.6070    1.3120 C.3       1 SUB1        0.120
     14 C          46.6870   58.7250    0.2950 C.2       1 SUB1        0.201
     15 O          46.9080   59.8920    0.5970 O.2       1 SUB1       -0.395
     16 N          46.3340   58.3390   -0.9240 N.am      1 SUB1       -0.262
     17 CA         46.2180   59.2450   -2.0550 C.3       1 SUB1        0.139
     18 C          44.7570   59.6140   -2.2900 C.2       1 SUB1        0.206
     19 O          43.8500   58.9310   -1.8160 O.2       1 SUB1       -0.394
     20 CB         46.7610   58.5480   -3.3070 C.3       1 SUB1        0.016
     21 CG         46.9150   59.4030   -4.5420 C.ar      1 SUB1       -0.049
     22 CD1        47.8130   60.4790   -4.5620 C.ar      1 SUB1       -0.068
     23 CD2        46.2140   59.1090   -5.7130 C.ar      1 SUB1       -0.068
     24 CE1        48.0110   61.2270   -5.7080 C.ar      1 SUB1       -0.040
     25 CE2        46.4040   59.8580   -6.8740 C.ar      1 SUB1       -0.040
     26 CZ         47.3130   60.9210   -6.8590 C.ar      1 SUB1        0.080
     27 OH         47.5280   61.6670   -7.9930 O.3       1 SUB1       -0.338
     28 N          44.5410   60.7150   -2.9990 N.am      1 SUB1       -0.263
     29 CA         43.1920   61.1390   -3.3690 C.3       1 SUB1        0.133
     30 C          43.1760   60.8270   -4.8600 C.2       1 SUB1        0.204
     31 O          43.8280   61.5040   -5.6570 O.2       1 SUB1       -0.394
     32 CB         42.9630   62.6550   -3.1320 C.3       1 SUB1       -0.006
     33 CG1        41.6090   63.0660   -3.6950 C.3       1 SUB1       -0.058
     34 CG2        43.0140   62.9600   -1.6420 C.3       1 SUB1       -0.058
     35 N          42.4530   59.7710   -5.2350 N.am      1 SUB1       -0.262
     36 CA         42.3960   59.3320   -6.6230 C.3       1 SUB1        0.139
     37 C          41.6610   60.2220   -7.6180 C.2       1 SUB1        0.206
     38 O          40.7240   60.9360   -7.2670 O.2       1 SUB1       -0.394
     39 CB         41.8360   57.9020   -6.6920 C.3       1 SUB1        0.016
     40 CG         42.6530   56.9240   -5.8710 C.ar      1 SUB1       -0.049
     41 CD1        42.4300   56.7770   -4.5090 C.ar      1 SUB1       -0.068
     42 CD2        43.6990   56.2020   -6.4480 C.ar      1 SUB1       -0.068
     43 CE1        43.2320   55.9390   -3.7290 C.ar      1 SUB1       -0.040
     44 CE2        44.5090   55.3600   -5.6760 C.ar      1 SUB1       -0.040
     45 CZ         44.2710   55.2400   -4.3260 C.ar      1 SUB1        0.080
     46 OH         45.0800   54.4470   -3.5450 O.3       1 SUB1       -0.338
     47 N          42.1170   60.1610   -8.8640 N.am      1 SUB1       -0.263
     48 CA         41.5600   60.9320   -9.9750 C.3       1 SUB1        0.133
     49 C          40.4710   60.1370  -10.7000 C.2       1 SUB1        0.204
     50 O          40.6090   58.9290  -10.8980 O.2       1 SUB1       -0.394
     51 CB         42.6810   61.2750  -10.9620 C.3       1 SUB1        0.004
     52 CG         42.2720   62.1910  -12.1010 C.3       1 SUB1        0.041
     53 CD         41.8830   63.5670  -11.6050 C.2       1 SUB1        0.174
     54 OE1        40.7090   63.9470  -11.6300 O.2       1 SUB1       -0.397
     55 NE2        42.8690   64.3180  -11.1300 N.am      1 SUB1       -0.301
     56 N          39.3980   60.8120  -11.1050 N.am      1 SUB1       -0.266
     57 CA         38.3220   60.1280  -11.8130 C.3       1 SUB1        0.120
     58 C          38.6950   59.5160  -13.1590 C.2       1 SUB1        0.202
     59 O          39.5040   60.0710  -13.9040 O.2       1 SUB1       -0.395
     60 N          38.0950   58.3680  -13.4800 N.am      1 SUB1       -0.269
     61 CA         38.3660   57.6730  -14.7430 C.3       1 SUB1        0.082
     62 C          37.6520   58.2980  -15.9450 C.2       1 SUB1        0.053
     63 O          36.7000   59.0840  -15.7280 O.co2     1 SUB1       -0.564
     64 CB         37.9480   56.2010  -14.6330 C.3       1 SUB1       -0.016
     65 CG         38.5740   55.3810  -13.5120 C.3       1 SUB1       -0.042
     66 CD1        38.0060   53.9610  -13.5490 C.3       1 SUB1       -0.062
     67 CD2        40.0940   55.3700  -13.6800 C.3       1 SUB1       -0.062
     68 OXT        38.0400   57.9840  -17.0960 O.co2     1 SUB1       -0.564
     69 H11        50.8678   57.2446    3.5673 H         1 SUB1        0.201
     70 H21        48.4334   57.5262    4.8723 H         1 SUB1        0.110
     71 H51        49.2338   59.6260    5.7379 H         1 SUB1        0.035
     72 H52        48.0147   59.9296    4.4541 H         1 SUB1        0.035
     73 H61        49.9048   60.3839    2.8778 H         1 SUB1        0.029
     74 H62        51.0228   60.2711    4.2791 H         1 SUB1        0.029
     75 H71        48.7974   62.2816    3.7620 H         1 SUB1        0.050
     76 H72        50.5370   62.5847    4.0913 H         1 SUB1        0.050
     77 H81        49.4860   61.2558    6.3620 H         1 SUB1        0.198
     78 H101       49.0174   64.3070    4.6105 H         1 SUB1        0.194
     79 H102       48.5218   65.1970    6.0751 H         1 SUB1        0.194
     80 H111       48.8431   62.3977    8.2138 H         1 SUB1        0.194
     81 H112       48.4241   64.1276    8.0933 H         1 SUB1        0.194
     82 H121       46.7315   57.9117    3.4155 H         1 SUB1        0.188
     83 H131       47.3420   56.7978    0.8482 H         1 SUB1        0.076
     84 H132       45.7263   57.2663    1.4777 H         1 SUB1        0.076
     85 H161       46.1365   57.3701   -1.0734 H         1 SUB1        0.189
     86 H171       46.7993   60.1572   -1.8553 H         1 SUB1        0.082
     87 H201       46.0754   57.7242   -3.5545 H         1 SUB1        0.045
     88 H202       47.7513   58.1387   -3.0585 H         1 SUB1        0.045
     89 H221       48.3627   60.7295   -3.6620 H         1 SUB1        0.053
     90 H231       45.5101   58.2846   -5.7199 H         1 SUB1        0.053
     91 H241       48.7134   62.0526   -5.7026 H         1 SUB1        0.052
     92 H251       45.8539   59.6193   -7.7770 H         1 SUB1        0.052
     93 H271       46.9796   61.3383   -8.6956 H         1 SUB1        0.246
     94 H281       45.3218   61.2691   -3.2877 H         1 SUB1        0.188
     95 H291       42.4294   60.5627   -2.8247 H         1 SUB1        0.080
     96 H321       43.7540   63.2231   -3.6434 H         1 SUB1        0.034
     97 H331       41.5864   62.8681   -4.7768 H         1 SUB1        0.023
     98 H332       41.4475   64.1391   -3.5152 H         1 SUB1        0.023
     99 H333       40.8151   62.4878   -3.1997 H         1 SUB1        0.023
    100 H341       42.2227   62.3972   -1.1253 H         1 SUB1        0.023
    101 H342       42.8611   64.0376   -1.4828 H         1 SUB1        0.023
    102 H343       43.9950   62.6657   -1.2408 H         1 SUB1        0.023
    103 H351       41.9354   59.2663   -4.5441 H         1 SUB1        0.189
    104 H361       43.4396   59.2939   -6.9687 H         1 SUB1        0.082
    105 H391       41.8383   57.5714   -7.7411 H         1 SUB1        0.045
    106 H392       40.8039   57.9075   -6.3116 H         1 SUB1        0.045
    107 H411       41.6184   57.3225   -4.0412 H         1 SUB1        0.053
    108 H421       43.8875   56.2946   -7.5115 H         1 SUB1        0.053
    109 H431       43.0437   55.8362   -2.6664 H         1 SUB1        0.052
    110 H441       45.3180   54.8065   -6.1388 H         1 SUB1        0.052
    111 H461       45.7403   54.0359   -4.0904 H         1 SUB1        0.246
    112 H471       42.8869   59.5517   -9.0537 H         1 SUB1        0.188
    113 H481       41.1230   61.8621   -9.5825 H         1 SUB1        0.080
    114 H511       43.0533   60.3354  -11.3962 H         1 SUB1        0.034
    115 H512       43.4905   61.7663  -10.4023 H         1 SUB1        0.034
    116 H521       41.4134   61.7458  -12.6250 H         1 SUB1        0.050
    117 H522       43.1164   62.2898  -12.7990 H         1 SUB1        0.050
    118 H551       43.8043   63.9644  -11.1151 H         1 SUB1        0.181
    119 H552       42.6766   65.2374  -10.7871 H         1 SUB1        0.181
    120 H561       39.3292   61.7929  -10.9230 H         1 SUB1        0.188
    121 H571       37.9532   59.3190  -11.1653 H         1 SUB1        0.076
    122 H572       37.5156   60.8560  -11.9854 H         1 SUB1        0.076
    123 H601       37.4396   57.9687  -12.8389 H         1 SUB1        0.190
    124 H611       39.4494   57.7200  -14.9273 H         1 SUB1        0.078
    125 H641       38.2055   55.7120  -15.5841 H         1 SUB1        0.033
    126 H642       36.8574   56.1764  -14.4916 H         1 SUB1        0.033
    127 H651       38.3255   55.8399  -12.5437 H         1 SUB1        0.030
    128 H661       36.9164   53.9981  -13.4032 H         1 SUB1        0.023
    129 H662       38.4630   53.3622  -12.7474 H         1 SUB1        0.023
    130 H663       38.2302   53.5016  -14.5230 H         1 SUB1        0.023
    131 H671       40.3527   54.9133  -14.6467 H         1 SUB1        0.023
    132 H672       40.5487   54.7869  -12.8656 H         1 SUB1        0.023
    133 H673       40.4739   56.4018  -13.6485 H         1 SUB1        0.023
    134 H12        50.4605   56.8048    5.1002 H         1 SUB1        0.201
    135 H13        51.0841   58.3005    4.8113 H         1 SUB1        0.201
@<TRIPOS>BOND
     1    3    2 1  
     2    2    5 1  
     3    2    1 1  
     4    5    6 1  
     5    6    7 1  
     6    7    8 1  
     7    8    9 1  
     8    9   10 1  
     9    9   11 1  
    10    3    4 2  
    11   14   13 1  
    12   13   12 1  
    13   14   15 2  
    14   18   17 1  
    15   17   20 1  
    16   17   16 1  
    17   20   21 1  
    18   21   23 ar 
    19   21   22 ar 
    20   22   24 ar 
    21   24   26 ar 
    22   26   27 1  
    23   25   26 ar 
    24   23   25 ar 
    25   18   19 2  
    26   30   29 1  
    27   29   32 1  
    28   29   28 1  
    29   32   33 1  
    30   32   34 1  
    31   30   31 2  
    32   37   36 1  
    33   36   39 1  
    34   36   35 1  
    35   39   40 1  
    36   40   42 ar 
    37   40   41 ar 
    38   41   43 ar 
    39   43   45 ar 
    40   45   46 1  
    41   44   45 ar 
    42   42   44 ar 
    43   37   38 2  
    44   49   48 1  
    45   48   51 1  
    46   48   47 1  
    47   51   52 1  
    48   52   53 1  
    49   53   54 2  
    50   53   55 am 
    51   49   50 2  
    52   58   57 1  
    53   57   56 1  
    54   58   59 2  
    55   61   62 1  
    56   61   64 1  
    57   60   61 1  
    58   64   65 1  
    59   65   67 1  
    60   65   66 1  
    61   62   68 2  
    62   62   63 2  
    63   12    3 am 
    64   16   14 am 
    65   28   18 am 
    66   35   30 am 
    67   47   37 am 
    68   56   49 am 
    69   58   60 am 
    70    1   69 1  
    71    2   70 1  
    72    5   71 1  
    73    5   72 1  
    74    6   73 1  
    75    6   74 1  
    76    7   75 1  
    77    7   76 1  
    78    8   77 1  
    79   10   78 1  
    80   10   79 1  
    81   11   80 1  
    82   11   81 1  
    83   12   82 1  
    84   13   83 1  
    85   13   84 1  
    86   16   85 1  
    87   17   86 1  
    88   20   87 1  
    89   20   88 1  
    90   22   89 1  
    91   23   90 1  
    92   24   91 1  
    93   25   92 1  
    94   27   93 1  
    95   28   94 1  
    96   29   95 1  
    97   32   96 1  
    98   33   97 1  
    99   33   98 1  
   100   33   99 1  
   101   34  100 1  
   102   34  101 1  
   103   34  102 1  
   104   35  103 1  
   105   36  104 1  
   106   39  105 1  
   107   39  106 1  
   108   41  107 1  
   109   42  108 1  
   110   43  109 1  
   111   44  110 1  
   112   46  111 1  
   113   47  112 1  
   114   48  113 1  
   115   51  114 1  
   116   51  115 1  
   117   52  116 1  
   118   52  117 1  
   119   55  118 1  
   120   55  119 1  
   121   56  120 1  
   122   57  121 1  
   123   57  122 1  
   124   60  123 1  
   125   61  124 1  
   126   64  125 1  
   127   64  126 1  
   128   65  127 1  
   129   66  128 1  
   130   66  129 1  
   131   66  130 1  
   132   67  131 1  
   133   67  132 1  
   134   67  133 1  
   135    1  134 1  
   136    1  135 1  
@<TRIPOS>SUBSTRUCTURE
     1 SUB1        1 GROUP

