### 
### Created by X-TOOL on Mon Oct 24 21:59:06 2005
### 

@<TRIPOS>MOLECULE
1c5q_ligand
   21    22     1     0     0
SMALL
GAST_HUCK


@<TRIPOS>ATOM
      1 C0         44.1310   -3.9270   25.1420 C.cat     1 SUB1        0.332
      2 C1         43.9570   -3.2790   26.4120 C.2       1 SUB1        0.245
      3 N1         43.8910   -5.2050   24.9160 N.pl3     1 SUB1       -0.198
      4 N2         44.5590   -3.1560   24.1610 N.pl3     1 SUB1       -0.198
      5 S2         44.1630   -1.5820   26.6040 S.3       1 SUB1        0.023
      6 C3         43.7610   -1.8940   28.2420 C.ar      1 SUB1        0.045
      7 C4         43.5070   -3.2050   28.5550 C.ar      1 SUB1       -0.011
      8 C5         43.6000   -4.1210   27.4660 C.2       1 SUB1       -0.003
      9 C6         43.6750   -0.9380   29.2610 C.ar      1 SUB1       -0.047
     10 C7         43.3450   -1.3510   30.5550 C.ar      1 SUB1       -0.067
     11 C8         43.0830   -2.7060   30.8330 C.ar      1 SUB1       -0.061
     12 C9         43.1690   -3.6950   29.8180 C.ar      1 SUB1        0.004
     13 H31        43.5567   -5.8092   25.6802 H         1 SUB1        0.193
     14 I9         42.8350   -5.6220   30.4050 I         1 SUB1       -0.055
     15 H32        44.0380   -5.5981   23.9754 H         1 SUB1        0.193
     16 H41        44.7471   -2.1583   24.3347 H         1 SUB1        0.193
     17 H42        44.7051   -3.5517   23.2213 H         1 SUB1        0.193
     18 H81        43.4353   -5.1975   27.4588 H         1 SUB1        0.047
     19 H91        43.8618    0.1086   29.0494 H         1 SUB1        0.059
     20 H101       43.2902   -0.6198   31.3534 H         1 SUB1        0.057
     21 H111       42.8107   -2.9996   31.8403 H         1 SUB1        0.059
@<TRIPOS>BOND
     1    1    4 1  
     2    1    3 1  
     3    1    2 1  
     4    2    8 2  
     5    2    5 1  
     6    5    6 1  
     7    6    9 ar 
     8    6    7 ar 
     9    7   12 ar 
    10    7    8 1  
    11   12   11 ar 
    12   11   10 ar 
    13   10    9 ar 
    14   12   14 1  
    15    3   13 1  
    16    3   15 1  
    17    4   16 1  
    18    4   17 1  
    19    8   18 1  
    20    9   19 1  
    21   10   20 1  
    22   11   21 1  
@<TRIPOS>SUBSTRUCTURE
     1 SUB1        1 GROUP

