2bvd_ligand
  -I-interpret- 

 44 45  0  0  0  0  0  0  0  0999 V2000
   15.1490   34.6620   17.1450 O   0  0  0  0  0
   19.2110   34.2660   14.6220 C   0  0  0  0  0
   17.9550   33.9880   13.9340 N   0  0  0  0  0
   19.2900   33.6050   16.0020 C   0  0  0  0  0
   20.3500   34.2280   16.7430 O   0  0  0  0  0
   18.0160   33.7770   16.8180 C   0  0  0  0  0
   18.1490   33.0370   18.0430 O   0  0  0  0  0
   16.8190   33.3150   15.9790 C   0  0  0  0  0
   16.7150   34.1390   14.6970 C   0  0  0  0  0
   21.5980   33.5810   16.5500 C   0  0  0  0  0
   22.6950   34.5650   16.9460 C   0  0  0  0  0
   22.7420   35.6760   16.0370 O   0  0  0  0  0
   24.0590   33.8810   17.0400 C   0  0  0  0  0
   25.0090   34.8100   17.5730 O   0  0  0  0  0
   23.9870   32.6220   17.9080 C   0  0  0  0  0
   25.2500   31.9450   17.9170 O   0  0  0  0  0
   22.8810   31.7170   17.3480 C   0  0  0  0  0
   15.4840   33.3330   16.7320 C   0  0  0  0  0
   22.7020   30.4370   18.1490 C   0  0  0  0  0
   22.1780   30.7760   19.4390 O   0  0  0  0  0
   21.6580   32.4420   17.4130 O   0  0  0  0  0
   14.3198   34.6488   17.6086 H   0  0  0  0  0
   19.3099   35.3543   14.7473 H   0  0  0  0  0
   20.0406   33.8911   14.0046 H   0  0  0  0  0
   17.9971   32.9667   13.5853 H   0  0  0  0  0
   19.4963   32.5322   15.8735 H   0  0  0  0  0
   17.8817   34.8408   17.0633 H   0  0  0  0  0
   18.8930   33.3678   18.5323 H   0  0  0  0  0
   17.0122   32.2710   15.6914 H   0  0  0  0  0
   15.8659   33.7813   14.0961 H   0  0  0  0  0
   16.5642   35.1987   14.9505 H   0  0  0  0  0
   21.7167   33.2726   15.5008 H   0  0  0  0  0
   22.4480   34.9566   17.9438 H   0  0  0  0  0
   23.4310   36.2731   16.3038 H   0  0  0  0  0
   24.3779   33.5877   16.0289 H   0  0  0  0  0
   25.0672   35.5655   17.0000 H   0  0  0  0  0
   23.7324   32.9067   18.9396 H   0  0  0  0  0
   25.9161   32.5244   18.2678 H   0  0  0  0  0
   23.1169   31.4606   16.3046 H   0  0  0  0  0
   14.6923   32.9509   16.0708 H   0  0  0  0  0
   15.5627   32.6888   17.6201 H   0  0  0  0  0
   23.6728   29.9327   18.2640 H   0  0  0  0  0
   22.0009   29.7685   17.6280 H   0  0  0  0  0
   21.3410   31.2131   19.3347 H   0  0  0  0  0
 18  1  1  0  0  0
  3  2  1  0  0  0
  4  2  1  0  0  0
  9  3  1  0  0  0
  4  5  1  0  0  0
  6  4  1  0  0  0
  5 10  1  0  0  0
  6  7  1  0  0  0
  8  6  1  0  0  0
  8  9  1  0  0  0
  8 18  1  0  0  0
 10 11  1  0  0  0
 10 21  1  0  0  0
 11 12  1  0  0  0
 11 13  1  0  0  0
 13 14  1  0  0  0
 13 15  1  0  0  0
 15 16  1  0  0  0
 15 17  1  0  0  0
 17 19  1  0  0  0
 17 21  1  0  0  0
 19 20  1  0  0  0
  1 22  1  0  0  0
  2 23  1  0  0  0
  2 24  1  0  0  0
  3 25  1  0  0  0
  4 26  1  0  0  0
  6 27  1  0  0  0
  7 28  1  0  0  0
  8 29  1  0  0  0
  9 30  1  0  0  0
  9 31  1  0  0  0
 10 32  1  0  0  0
 11 33  1  0  0  0
 12 34  1  0  0  0
 13 35  1  0  0  0
 14 36  1  0  0  0
 15 37  1  0  0  0
 16 38  1  0  0  0
 17 39  1  0  0  0
 18 40  1  0  0  0
 18 41  1  0  0  0
 19 42  1  0  0  0
 19 43  1  0  0  0
 20 44  1  0  0  0
M  END
$$$$
