### 
### Created by X-TOOL on Mon Oct 24 22:19:39 2005
### 

@<TRIPOS>MOLECULE
2bvd_ligand
   44    45     1     0     0
SMALL
GAST_HUCK


@<TRIPOS>ATOM
      1 O6         15.1490   34.6620   17.1450 O.3       1 SUB1       -0.395
      2 C5         19.2110   34.2660   14.6220 C.3       1 SUB1        0.025
      3 N5         17.9550   33.9880   13.9340 N.3       1 SUB1       -0.313
      4 C4         19.2900   33.6050   16.0020 C.3       1 SUB1        0.100
      5 O4         20.3500   34.2280   16.7430 O.3       1 SUB1       -0.342
      6 C3         18.0160   33.7770   16.8180 C.3       1 SUB1        0.089
      7 O3         18.1490   33.0370   18.0430 O.3       1 SUB1       -0.389
      8 C2         16.8190   33.3150   15.9790 C.3       1 SUB1        0.023
      9 C1         16.7150   34.1390   14.6970 C.3       1 SUB1        0.003
     10 C1A        21.5980   33.5810   16.5500 C.3       1 SUB1        0.188
     11 C2A        22.6950   34.5650   16.9460 C.3       1 SUB1        0.134
     12 O2A        22.7420   35.6760   16.0370 O.3       1 SUB1       -0.384
     13 C3A        24.0590   33.8810   17.0400 C.3       1 SUB1        0.114
     14 O3A        25.0090   34.8100   17.5730 O.3       1 SUB1       -0.386
     15 C4A        23.9870   32.6220   17.9080 C.3       1 SUB1        0.112
     16 O4A        25.2500   31.9450   17.9170 O.3       1 SUB1       -0.387
     17 C5A        22.8810   31.7170   17.3480 C.3       1 SUB1        0.113
     18 C6         15.4840   33.3330   16.7320 C.3       1 SUB1        0.051
     19 C6A        22.7020   30.4370   18.1490 C.3       1 SUB1        0.073
     20 O6A        22.1780   30.7760   19.4390 O.3       1 SUB1       -0.392
     21 O5A        21.6580   32.4420   17.4130 O.3       1 SUB1       -0.340
     22 H11        14.3198   34.6488   17.6086 H         1 SUB1        0.209
     23 H21        19.3099   35.3543   14.7473 H         1 SUB1        0.045
     24 H22        20.0406   33.8911   14.0046 H         1 SUB1        0.045
     25 H31        17.9971   32.9667   13.5853 H         1 SUB1        0.122
     26 H41        19.4963   32.5322   15.8735 H         1 SUB1        0.064
     27 H61        17.8817   34.8408   17.0633 H         1 SUB1        0.062
     28 H71        18.8930   33.3678   18.5323 H         1 SUB1        0.210
     29 H81        17.0122   32.2710   15.6914 H         1 SUB1        0.036
     30 H91        15.8659   33.7813   14.0961 H         1 SUB1        0.043
     31 H92        16.5642   35.1987   14.9505 H         1 SUB1        0.043
     32 H101       21.7167   33.2726   15.5008 H         1 SUB1        0.094
     33 H111       22.4480   34.9566   17.9438 H         1 SUB1        0.067
     34 H121       23.4310   36.2731   16.3038 H         1 SUB1        0.210
     35 H131       24.3779   33.5877   16.0289 H         1 SUB1        0.065
     36 H141       25.0672   35.5655   17.0000 H         1 SUB1        0.210
     37 H151       23.7324   32.9067   18.9396 H         1 SUB1        0.065
     38 H161       25.9161   32.5244   18.2678 H         1 SUB1        0.210
     39 H171       23.1169   31.4606   16.3046 H         1 SUB1        0.065
     40 H181       14.6923   32.9509   16.0708 H         1 SUB1        0.056
     41 H182       15.5627   32.6888   17.6201 H         1 SUB1        0.056
     42 H191       23.6728   29.9327   18.2640 H         1 SUB1        0.058
     43 H192       22.0009   29.7685   17.6280 H         1 SUB1        0.058
     44 H201       21.3410   31.2131   19.3347 H         1 SUB1        0.209
@<TRIPOS>BOND
     1   18    1 1  
     2    3    2 1  
     3    4    2 1  
     4    9    3 1  
     5    4    5 1  
     6    6    4 1  
     7    5   10 1  
     8    6    7 1  
     9    8    6 1  
    10    8    9 1  
    11    8   18 1  
    12   10   11 1  
    13   10   21 1  
    14   11   12 1  
    15   11   13 1  
    16   13   14 1  
    17   13   15 1  
    18   15   16 1  
    19   15   17 1  
    20   17   19 1  
    21   17   21 1  
    22   19   20 1  
    23    1   22 1  
    24    2   23 1  
    25    2   24 1  
    26    3   25 1  
    27    4   26 1  
    28    6   27 1  
    29    7   28 1  
    30    8   29 1  
    31    9   30 1  
    32    9   31 1  
    33   10   32 1  
    34   11   33 1  
    35   12   34 1  
    36   13   35 1  
    37   14   36 1  
    38   15   37 1  
    39   16   38 1  
    40   17   39 1  
    41   18   40 1  
    42   18   41 1  
    43   19   42 1  
    44   19   43 1  
    45   20   44 1  
@<TRIPOS>SUBSTRUCTURE
     1 SUB1        1 GROUP

