### 
### Created by X-TOOL on Mon Oct 24 21:52:45 2005
### 

@<TRIPOS>MOLECULE
1od8_ligand
   35    36     1     0     0
SMALL
GAST_HUCK


@<TRIPOS>ATOM
      1 N1         10.0280   17.4550   14.4610 N.am      1 SUB1       -0.285
      2 C2         10.4820   16.8990   15.5660 C.2       1 SUB1        0.207
      3 C3          9.8290   15.6100   16.0490 C.3       1 SUB1        0.170
      4 O3          9.6140   15.6520   17.4290 O.3       1 SUB1       -0.369
      5 C4          8.5110   15.3580   15.3390 C.3       1 SUB1        0.106
      6 O4          8.0510   14.0670   15.7630 O.3       1 SUB1       -0.340
      7 C5          8.7450   15.4480   13.8540 C.3       1 SUB1       -0.002
      8 C6          9.0400   16.8970   13.5210 C.3       1 SUB1        0.034
      9 O2         11.4230   17.3680   16.2220 O.2       1 SUB1       -0.394
     10 C1          6.6840   13.8660   15.5330 C.3       1 SUB1        0.188
     11 C2          6.3710   12.4350   15.8290 C.3       1 SUB1        0.134
     12 C3          4.8700   12.1550   15.7560 C.3       1 SUB1        0.114
     13 C4          4.1120   13.2050   16.5460 C.3       1 SUB1        0.107
     14 C5          4.5690   14.5900   16.1870 C.3       1 SUB1        0.079
     15 O2          7.0630   11.6240   14.8920 O.3       1 SUB1       -0.384
     16 O3          4.6070   10.8620   16.2590 O.3       1 SUB1       -0.386
     17 O4          2.7200   13.1000   16.2810 O.3       1 SUB1       -0.387
     18 O5          5.9760   14.7020   16.4070 O.3       1 SUB1       -0.346
     19 H11        10.3953   18.3572   14.2349 H         1 SUB1        0.185
     20 H31        10.5097   14.7753   15.8256 H         1 SUB1        0.086
     21 H41         9.2070   14.8408   17.7098 H         1 SUB1        0.213
     22 H51         7.7717   16.1189   15.6297 H         1 SUB1        0.065
     23 H71         7.8476   15.1144   13.3124 H         1 SUB1        0.031
     24 H72         9.6002   14.8169   13.5705 H         1 SUB1        0.031
     25 H81         9.4395   16.9585   12.4980 H         1 SUB1        0.052
     26 H82         8.1093   17.4796   13.5869 H         1 SUB1        0.052
     27 H101        6.4278   14.1024   14.4897 H         1 SUB1        0.094
     28 H111        6.7223   12.1964   16.8437 H         1 SUB1        0.067
     29 H121        4.5469   12.2002   14.7055 H         1 SUB1        0.065
     30 H131        4.2899   13.0367   17.6184 H         1 SUB1        0.064
     31 H141        4.0409   15.3238   16.8136 H         1 SUB1        0.059
     32 H142        4.3474   14.7856   15.1275 H         1 SUB1        0.059
     33 H151        7.9941   11.8051   14.9449 H         1 SUB1        0.210
     34 H161        5.0906   10.2214   15.7509 H         1 SUB1        0.210
     35 H171        2.4211   12.2265   16.5051 H         1 SUB1        0.210
@<TRIPOS>BOND
     1    1    2 am 
     2    1    8 1  
     3    2    3 1  
     4    2    9 2  
     5    3    4 1  
     6    3    5 1  
     7    5    6 1  
     8    5    7 1  
     9    6   10 1  
    10    7    8 1  
    11   10   11 1  
    12   10   18 1  
    13   11   12 1  
    14   11   15 1  
    15   12   13 1  
    16   12   16 1  
    17   13   14 1  
    18   13   17 1  
    19   14   18 1  
    20    1   19 1  
    21    3   20 1  
    22    4   21 1  
    23    5   22 1  
    24    7   23 1  
    25    7   24 1  
    26    8   25 1  
    27    8   26 1  
    28   10   27 1  
    29   11   28 1  
    30   12   29 1  
    31   13   30 1  
    32   14   31 1  
    33   14   32 1  
    34   15   33 1  
    35   16   34 1  
    36   17   35 1  
@<TRIPOS>SUBSTRUCTURE
     1 SUB1        1 GROUP

