2fgi_ligand
  -I-interpret- 

 80 82  0  0  0  0  0  0  0  0999 V2000
    9.4904    7.1140   28.9660 H   0  0  0  0  0
    9.6277    5.8221   30.2064 H   0  0  0  0  0
    9.0387    5.4244   28.5567 H   0  0  0  0  0
   11.8520    6.4100   29.2705 H   0  0  0  0  0
   11.2630    6.0122   27.6208 H   0  0  0  0  0
   14.0393    4.4641   31.2354 H   0  0  0  0  0
   12.2742    4.3115   31.5316 H   0  0  0  0  0
   12.9265    5.7797   30.7281 H   0  0  0  0  0
   13.6319    4.3956   28.7716 H   0  0  0  0  0
   12.9797    2.9274   29.5751 H   0  0  0  0  0
   10.0067    2.8770   28.4831 H   0  0  0  0  0
   11.6307    2.5238   27.8015 H   0  0  0  0  0
   11.3356    3.9978   26.0089 H   0  0  0  0  0
    9.9944    4.8728   26.8228 H   0  0  0  0  0
    8.6023    2.8200   26.6478 H   0  0  0  0  0
    9.9338    2.0296   25.7372 H   0  0  0  0  0
    9.7401    3.5607   23.9216 H   0  0  0  0  0
    8.7143    4.6840   24.8769 H   0  0  0  0  0
    5.0582    1.4495   20.9424 H   0  0  0  0  0
    4.7907    2.7243   18.8075 H   0  0  0  0  0
    6.6382    3.1929   16.3482 H   0  0  0  0  0
    3.8942    4.8596   13.5324 H   0  0  0  0  0
    3.8107    6.1547   17.6302 H   0  0  0  0  0
    5.7461    1.9463   12.1541 H   0  0  0  0  0
    4.5878    3.3182   12.2062 H   0  0  0  0  0
    4.3195    1.8762   13.2432 H   0  0  0  0  0
    1.0103    7.0140   14.1483 H   0  0  0  0  0
    1.2601    5.2409   14.2906 H   0  0  0  0  0
    2.3150    6.2126   13.2091 H   0  0  0  0  0
   11.2273    9.5204   19.9159 H   0  0  0  0  0
   10.4351    8.8201   18.4638 H   0  0  0  0  0
   11.0198    7.7416   19.7759 H   0  0  0  0  0
    9.3059   10.9769   20.3177 H   0  0  0  0  0
    7.6587   10.2753   20.4625 H   0  0  0  0  0
    8.4806   10.3154   18.8658 H   0  0  0  0  0
   10.0961    9.4364   22.0851 H   0  0  0  0  0
    9.8894    7.6617   21.9002 H   0  0  0  0  0
    8.4610    8.7043   22.2155 H   0  0  0  0  0
    9.7300    6.0540   29.1360 C   0  0  0  0  0
   11.1620    5.7790   28.6910 C   0  0  0  0  0
   13.0390    4.6910   30.8380 C   0  0  0  0  0
   12.8670    4.0160   29.4650 C   0  0  0  0  0
   10.8880    3.3130   27.9900 C   0  0  0  0  0
   10.4530    3.8870   26.6560 C   0  0  0  0  0
    9.4540    2.9910   25.9730 C   0  0  0  0  0
    8.9500    3.6270   24.6840 C   0  0  0  0  0
    7.1310    3.0720   22.9050 C   0  0  0  0  0
    5.7400    2.2150   21.2950 C   0  0  0  0  0
    6.0240    3.3180   20.4860 C   0  0  0  0  0
    6.9000    4.3240   20.9760 C   0  0  0  0  0
    5.4770    3.4670   19.1980 C   0  0  0  0  0
    5.8210    4.5680   18.4330 C   0  0  0  0  0
    6.6830    5.4990   18.9790 C   0  0  0  0  0
    5.2980    4.6730   17.1530 C   0  0  0  0  0
    5.8270    3.8790   16.1330 C   0  0  0  0  0
    5.3200    3.9650   14.8510 C   0  0  0  0  0
    4.2880    4.8070   14.5410 C   0  0  0  0  0
    3.7620    5.5890   15.5520 C   0  0  0  0  0
    4.2470    5.5340   16.8560 C   0  0  0  0  0
    5.0810    2.5360   12.8020 C   0  0  0  0  0
    1.7620    6.2110   14.1600 C   0  0  0  0  0
    7.9120    7.6430   18.4980 C   0  0  0  0  0
    9.2370    8.8210   20.2280 C   0  0  0  0  0
   10.5680    8.7190   19.5510 C   0  0  0  0  0
    8.6280   10.1930   19.9490 C   0  0  0  0  0
    9.4340    8.6440   21.7060 C   0  0  0  0  0
   11.4990    4.3260   28.9210 N   0  0  0  0  0
    7.7510    2.9590   24.1820 N   0  3  0  0  0
    6.3230    2.0940   22.5420 N   0  0  0  0  0
    7.4290    4.1450   22.1800 N   0  0  0  0  0
    7.1900    5.3550   20.2030 N   0  0  0  0  0
    7.0700    6.6520   18.2320 N   0  0  0  0  0
    8.3600    7.7640   19.7500 N   0  0  0  0  0
    5.8570    3.1510   13.8580 O   0  0  0  0  0
    2.6890    6.4300   15.2610 O   0  0  0  0  0
    8.2250    8.4490   17.6210 O   0  0  0  0  0
    7.0281    3.2171   24.8353 H   0  0  0  0  0
    7.9536    1.9761   24.2761 H   0  0  0  0  0
    6.6227    6.7274   17.3408 H   0  0  0  0  0
    8.0693    7.0728   20.4116 H   0  0  0  0  0
 39  1  1  0  0  0
 39  2  1  0  0  0
 39  3  1  0  0  0
 40  4  1  0  0  0
 40  5  1  0  0  0
 41  6  1  0  0  0
 41  7  1  0  0  0
 41  8  1  0  0  0
 42  9  1  0  0  0
 42 10  1  0  0  0
 43 11  1  0  0  0
 43 12  1  0  0  0
 44 13  1  0  0  0
 44 14  1  0  0  0
 45 15  1  0  0  0
 45 16  1  0  0  0
 46 17  1  0  0  0
 46 18  1  0  0  0
 48 19  1  0  0  0
 51 20  1  0  0  0
 55 21  1  0  0  0
 57 22  1  0  0  0
 59 23  1  0  0  0
 60 24  1  0  0  0
 60 25  1  0  0  0
 60 26  1  0  0  0
 61 27  1  0  0  0
 61 28  1  0  0  0
 61 29  1  0  0  0
 64 30  1  0  0  0
 64 31  1  0  0  0
 64 32  1  0  0  0
 65 33  1  0  0  0
 65 34  1  0  0  0
 65 35  1  0  0  0
 66 36  1  0  0  0
 66 37  1  0  0  0
 66 38  1  0  0  0
 68 77  1  0  0  0
 68 78  1  0  0  0
 40 39  1  0  0  0
 67 40  1  0  0  0
 43 67  1  0  0  0
 67 42  1  0  0  0
 42 41  1  0  0  0
 44 43  1  0  0  0
 45 44  1  0  0  0
 46 45  1  0  0  0
 68 46  1  0  0  0
 47 68  1  0  0  0
 69 47  4  0  0  0
 70 47  4  0  0  0
 50 70  4  0  0  0
 71 50  4  0  0  0
 49 50  4  0  0  0
 51 49  4  0  0  0
 49 48  4  0  0  0
 48 69  4  0  0  0
 52 51  4  0  0  0
 54 52  1  0  0  0
 52 53  4  0  0  0
 53 71  4  0  0  0
 53 72  1  0  0  0
 72 62  1  0  0  0
 62 73  1  0  0  0
 62 76  2  0  0  0
 73 63  1  0  0  0
 63 66  1  0  0  0
 63 65  1  0  0  0
 63 64  1  0  0  0
 54 59  4  0  0  0
 55 54  4  0  0  0
 56 55  4  0  0  0
 74 56  1  0  0  0
 56 57  4  0  0  0
 57 58  4  0  0  0
 58 75  1  0  0  0
 58 59  4  0  0  0
 75 61  1  0  0  0
 74 60  1  0  0  0
 72 79  1  0  0  0
 73 80  1  0  0  0
M  END
$$$$
