### 
### Created by X-TOOL on Mon Oct 24 22:39:46 2005
### 

@<TRIPOS>MOLECULE
1pro_ligand
   80    84     1     0     0
SMALL
GAST_HUCK


@<TRIPOS>ATOM
      1 N1         -8.6090   17.4790   26.9670 N.3       1 SUB1       -0.189
      2 N2         -8.6350   16.0340   26.7950 N.am      1 SUB1       -0.177
      3 C3         -8.8340   15.1390   27.7930 C.2       1 SUB1        0.282
      4 O3         -8.1960   14.0580   27.7490 O.2       1 SUB1       -0.399
      5 N4         -9.7380   15.5000   28.7370 N.am      1 SUB1       -0.241
      6 C5        -10.7830   16.4110   28.6900 C.3       1 SUB1        0.084
      7 C6        -10.5070   17.9430   28.3120 C.3       1 SUB1        0.095
      8 O6        -11.7120   18.5780   28.6250 O.3       1 SUB1       -0.388
      9 C7         -9.9550   18.2170   26.9280 C.3       1 SUB1        0.052
     10 C8         -7.5970   18.0110   27.9810 C.3       1 SUB1        0.055
     11 C9         -6.2610   18.0140   27.2600 C.ar      1 SUB1       -0.027
     12 C10        -5.9990   18.9990   26.2900 C.ar      1 SUB1       -0.059
     13 C11        -4.7980   18.9680   25.5870 C.ar      1 SUB1       -0.068
     14 C12        -3.8660   17.9650   25.8660 C.ar      1 SUB1       -0.069
     15 C13        -4.1400   16.9950   26.8340 C.ar      1 SUB1       -0.068
     16 C14        -5.3300   17.0100   27.5410 C.ar      1 SUB1       -0.059
     17 C15       -11.8350   15.7240   27.7790 C.3       1 SUB1        0.007
     18 C16       -12.5130   14.5110   28.4400 C.ar      1 SUB1       -0.041
     19 C17       -13.5150   14.6890   29.4100 C.ar      1 SUB1       -0.060
     20 C18       -14.1260   13.5700   29.9890 C.ar      1 SUB1       -0.069
     21 C19       -13.7420   12.2830   29.6090 C.ar      1 SUB1       -0.069
     22 C20       -12.7480   12.1180   28.6470 C.ar      1 SUB1       -0.069
     23 C21       -12.1290   13.2200   28.0570 C.ar      1 SUB1       -0.060
     24 C22        -9.5080   14.6890   30.0310 C.3       1 SUB1        0.061
     25 C23        -9.7610   15.3130   31.3930 C.ar      1 SUB1       -0.041
     26 C24       -10.8880   14.9570   32.1220 C.ar      1 SUB1       -0.038
     27 C25       -11.1060   15.5500   33.3650 C.ar      1 SUB1        0.113
     28 C26       -10.1860   16.4640   33.8690 C.ar      1 SUB1        0.109
     29 C27        -9.0600   16.8300   33.1410 C.ar      1 SUB1       -0.048
     30 C28        -8.8540   16.2530   31.8950 C.ar      1 SUB1       -0.078
     31 O29       -10.3860   17.0270   35.0700 O.3       1 SUB1       -0.341
     32 O30       -12.3300   15.2890   33.9950 O.3       1 SUB1       -0.327
     33 C31       -13.2190   14.1460   33.8460 C.3       1 SUB1        0.057
     34 C32        -7.9030   15.5780   25.5260 C.3       1 SUB1        0.078
     35 C33        -8.3250   16.1260   24.1900 C.ar      1 SUB1       -0.039
     36 C34        -9.6010   15.8450   23.6790 C.ar      1 SUB1       -0.078
     37 C35        -9.9640   16.3570   22.4350 C.ar      1 SUB1       -0.048
     38 C36        -9.0500   17.1410   21.7250 C.ar      1 SUB1        0.109
     39 C37        -7.7900   17.4080   22.2460 C.ar      1 SUB1        0.113
     40 C38        -7.4230   16.8970   23.4700 C.ar      1 SUB1       -0.038
     41 O39        -9.6420   17.4790   20.5660 O.3       1 SUB1       -0.341
     42 O40        -6.9770   18.2840   21.5320 O.3       1 SUB1       -0.327
     43 C41        -6.2750   19.3230   22.2660 C.3       1 SUB1        0.057
     44 H61       -11.2002   16.4518   29.7070 H         1 SUB1        0.061
     45 H71        -9.7413   18.3209   29.0055 H         1 SUB1        0.063
     46 H81       -11.9721   18.3437   29.5081 H         1 SUB1        0.210
     47 H91       -10.6127   17.8071   26.1474 H         1 SUB1        0.047
     48 H92        -9.8147   19.2950   26.7603 H         1 SUB1        0.047
     49 H101       -7.5559   17.3551   28.8631 H         1 SUB1        0.061
     50 H102       -7.8667   19.0304   28.2943 H         1 SUB1        0.061
     51 H121       -6.7275   19.7768   26.0915 H         1 SUB1        0.056
     52 H131       -4.5877   19.7150   24.8301 H         1 SUB1        0.060
     53 H141       -2.9250   17.9391   25.3285 H         1 SUB1        0.056
     54 H151       -3.4098   16.2193   27.0342 H         1 SUB1        0.060
     55 H161       -5.5353   16.2597   28.2959 H         1 SUB1        0.056
     56 H171      -11.3337   15.3859   26.8601 H         1 SUB1        0.045
     57 H172      -12.6105   16.4612   27.5237 H         1 SUB1        0.045
     58 H191      -13.8131   15.6876   29.7082 H         1 SUB1        0.056
     59 H201      -14.9005   13.7038   30.7355 H         1 SUB1        0.060
     60 H211      -14.2142   11.4175   30.0595 H         1 SUB1        0.056
     61 H221      -12.4511   11.1179   28.3525 H         1 SUB1        0.060
     62 H231      -11.3576   13.0783   27.3087 H         1 SUB1        0.056
     63 H241       -8.4543   14.3735   30.0209 H         1 SUB1        0.066
     64 H242      -10.1567   13.8031   29.9660 H         1 SUB1        0.066
     65 H261      -11.5884   14.2283   31.7302 H         1 SUB1        0.045
     66 H291       -8.3560   17.5522   33.5384 H         1 SUB1        0.049
     67 H301       -7.9863   16.5321   31.3082 H         1 SUB1        0.044
     68 H311       -9.6708   17.6218   35.2627 H         1 SUB1        0.242
     69 H331      -14.0952   14.2755   34.4983 H         1 SUB1        0.057
     70 H332      -12.6848   13.2267   34.1279 H         1 SUB1        0.057
     71 H333      -13.5489   14.0720   32.7993 H         1 SUB1        0.057
     72 H341       -8.0087   14.4845   25.4711 H         1 SUB1        0.068
     73 H342       -6.8422   15.8377   25.6577 H         1 SUB1        0.068
     74 H361      -10.2966   15.2365   24.2455 H         1 SUB1        0.044
     75 H371      -10.9446   16.1496   22.0222 H         1 SUB1        0.049
     76 H401       -6.4351   17.0955   23.8695 H         1 SUB1        0.045
     77 H411       -9.0486   18.0151   20.0531 H         1 SUB1        0.242
     78 H431       -5.6795   19.9277   21.5662 H         1 SUB1        0.057
     79 H432       -5.6091   18.8606   23.0095 H         1 SUB1        0.057
     80 H433       -7.0049   19.9673   22.7779 H         1 SUB1        0.057
@<TRIPOS>BOND
     1    1   10 1  
     2    1    9 1  
     3    1    2 1  
     4    2   34 1  
     5    2    3 am 
     6    3    5 am 
     7    3    4 2  
     8    5   24 1  
     9    5    6 1  
    10    6   17 1  
    11    6    7 1  
    12    7    9 1  
    13    7    8 1  
    14   17   18 1  
    15   18   23 ar 
    16   18   19 ar 
    17   19   20 ar 
    18   20   21 ar 
    19   21   22 ar 
    20   22   23 ar 
    21   24   25 1  
    22   25   30 ar 
    23   25   26 ar 
    24   26   27 ar 
    25   27   32 1  
    26   27   28 ar 
    27   28   31 1  
    28   28   29 ar 
    29   29   30 ar 
    30   32   33 1  
    31   34   35 1  
    32   35   40 ar 
    33   35   36 ar 
    34   36   37 ar 
    35   37   38 ar 
    36   38   41 1  
    37   38   39 ar 
    38   39   42 1  
    39   39   40 ar 
    40   42   43 1  
    41   10   11 1  
    42   11   16 ar 
    43   11   12 ar 
    44   12   13 ar 
    45   13   14 ar 
    46   14   15 ar 
    47   15   16 ar 
    48    6   44 1  
    49    7   45 1  
    50    8   46 1  
    51    9   47 1  
    52    9   48 1  
    53   10   49 1  
    54   10   50 1  
    55   12   51 1  
    56   13   52 1  
    57   14   53 1  
    58   15   54 1  
    59   16   55 1  
    60   17   56 1  
    61   17   57 1  
    62   19   58 1  
    63   20   59 1  
    64   21   60 1  
    65   22   61 1  
    66   23   62 1  
    67   24   63 1  
    68   24   64 1  
    69   26   65 1  
    70   29   66 1  
    71   30   67 1  
    72   31   68 1  
    73   33   69 1  
    74   33   70 1  
    75   33   71 1  
    76   34   72 1  
    77   34   73 1  
    78   36   74 1  
    79   37   75 1  
    80   40   76 1  
    81   41   77 1  
    82   43   78 1  
    83   43   79 1  
    84   43   80 1  
@<TRIPOS>SUBSTRUCTURE
     1 SUB1        1 GROUP

