### 
### Created by X-TOOL on Mon Oct 24 22:27:21 2005
### 

@<TRIPOS>MOLECULE
1o2s_ligand
   32    34     1     0     0
SMALL
GAST_HUCK


@<TRIPOS>ATOM
      1 C1         44.4320   -3.1000   26.2090 C.ar      1 SUB1        0.171
      2 C2         44.8530   -1.7570   26.2780 C.ar      1 SUB1       -0.020
      3 C3         44.8200   -1.0550   27.4740 C.ar      1 SUB1       -0.036
      4 C4         44.3690   -1.7070   28.5790 C.ar      1 SUB1        0.081
      5 C5         43.9510   -2.9880   28.5690 C.ar      1 SUB1        0.034
      6 C6         43.9680   -3.7260   27.3860 C.ar      1 SUB1       -0.007
      7 C7         44.4890   -3.7890   24.9880 C.cat     1 SUB1        0.310
      8 N1         44.2160   -5.0750   24.9500 N.pl3     1 SUB1       -0.201
      9 N2         44.8110   -3.1340   23.8960 N.pl3     1 SUB1       -0.201
     10 N3         44.2410   -1.3060   29.7810 N.pl3     1 SUB1       -0.251
     11 N4         43.5570   -3.4060   29.7520 N.2       1 SUB1       -0.310
     12 C8         43.7710   -2.3000   30.4570 C.2       1 SUB1        0.136
     13 C1'        43.5750   -2.1580   31.8270 C.ar      1 SUB1        0.065
     14 C2'        43.3790   -3.3150   32.6020 C.ar      1 SUB1       -0.052
     15 C3'        43.1840   -3.2160   33.9690 C.ar      1 SUB1       -0.067
     16 C4'        43.1850   -1.9660   34.5710 C.ar      1 SUB1       -0.066
     17 C5'        43.3800   -0.7990   33.8160 C.ar      1 SUB1       -0.026
     18 C6'        43.5740   -0.8660   32.4370 C.ar      1 SUB1        0.109
     19 O6'        43.7320    0.3260   31.7190 O.3       1 SUB1       -0.326
     20 H21        45.2130   -1.2420   25.4060 H         1 SUB1        0.059
     21 H31        45.1360   -0.0270   27.5450 H         1 SUB1        0.055
     22 H61        43.6340   -4.7530   27.3850 H         1 SUB1        0.060
     23 H81        44.0010   -5.5520   25.8160 H         1 SUB1        0.192
     24 H82        44.2200   -5.6430   24.1330 H         1 SUB1        0.192
     25 H91        44.9960   -2.1430   23.9470 H         1 SUB1        0.192
     26 H92        44.9090   -3.5580   23.0030 H         1 SUB1        0.192
     27 H101       44.4460   -0.4320   30.1840 H         1 SUB1        0.230
     28 H141       43.3750   -4.2930   32.1420 H         1 SUB1        0.064
     29 H151       43.0320   -4.1060   34.5640 H         1 SUB1        0.054
     30 H161       43.0380   -1.8990   35.6400 H         1 SUB1        0.062
     31 H171       43.3890    0.1580   34.3170 H         1 SUB1        0.055
     32 H191       43.8543    0.1260   30.7984 H         1 SUB1        0.252
@<TRIPOS>BOND
     1    1    2 ar 
     2    1    6 ar 
     3    1    7 1  
     4    2    3 ar 
     5    2   20 1  
     6    3    4 ar 
     7    3   21 1  
     8    4    5 ar 
     9    4   10 1  
    10    5    6 ar 
    11    5   11 1  
    12    6   22 1  
    13    7    8 1  
    14    7    9 1  
    15    8   23 1  
    16    8   24 1  
    17    9   25 1  
    18    9   26 1  
    19   10   12 1  
    20   10   27 1  
    21   11   12 2  
    22   12   13 1  
    23   13   14 ar 
    24   13   18 ar 
    25   14   15 ar 
    26   14   28 1  
    27   15   16 ar 
    28   15   29 1  
    29   16   17 ar 
    30   16   30 1  
    31   17   18 ar 
    32   17   31 1  
    33   18   19 1  
    34   19   32 1  
@<TRIPOS>SUBSTRUCTURE
     1 SUB1        1 GROUP

