#	Name:			1loq_ligand
#	Creating user name:	wangrx
#	Creation time:		Wed Jul 11 17:19:42 2007

#	Modifying user name:	wangrx
#	Modification time:	Wed Jul 11 17:20:22 2007

@<TRIPOS>MOLECULE
1loq_ligand
   32    33     1     0     0
SMALL
GAST_HUCK


@<TRIPOS>ATOM
      1 H131       40.6181   37.0406   36.2870 H         1 SUB1        0.0640 
      2 H132       40.0729   36.0444   37.6788 H         1 SUB1        0.0640 
      3 H141       38.2323   37.5458   38.0885 H         1 SUB1        0.0650 
      4 H161       38.2499   38.5548   35.5557 H         1 SUB1        0.0650 
      5 H171       36.9668   40.2207   36.4932 H         1 SUB1        0.2100 
      6 H181       40.3000   39.7452   35.6687 H         1 SUB1        0.0680 
      7 H191       38.5952   41.6402   36.9706 H         1 SUB1        0.2100 
      8 O3P        39.1800   33.5330   36.3510 O.co2     1 SUB1       -0.5350 
      9 P          39.1180   34.7040   35.2570 P.3       1 SUB1        0.2050 
     10 O1P        40.3930   34.8170   34.4320 O.co2     1 SUB1       -0.5350 
     11 O2P        37.9500   34.4720   34.3790 O.co2     1 SUB1       -0.5350 
     12 O5'        38.7890   36.0630   36.0300 O.3       1 SUB1       -0.3200 
     13 C5'        39.7460   36.7240   36.8780 C.3       1 SUB1        0.0940 
     14 C4'        39.0580   37.9290   37.4710 C.3       1 SUB1        0.1180 
     15 O4'        39.9900   38.6330   38.3080 O.3       1 SUB1       -0.3360 
     16 C3'        38.4760   38.9770   36.5460 C.3       1 SUB1        0.1150 
     17 O3'        37.3050   39.5700   37.0970 O.3       1 SUB1       -0.3860 
     18 C2'        39.6020   40.0150   36.4750 C.3       1 SUB1        0.1390 
     19 O2'        39.1660   41.3750   36.2590 O.3       1 SUB1       -0.3840 
     20 C1'        40.2760   39.8940   37.8220 C.3       1 SUB1        0.2060 
     21 N1         41.7050   40.2160   37.9350 N.am      1 SUB1       -0.1590 
     22 C2         42.6390   39.4970   37.1920 C.2       1 SUB1        0.3330 
     23 O2         42.2840   38.6140   36.4530 O.2       1 SUB1       -0.3820 
     24 N3         43.9610   39.8690   37.3740 N.am      1 SUB1       -0.1860 
     25 C4         44.4400   40.8780   38.2140 C.2       1 SUB1        0.1820 
     26 O4         45.6380   41.0640   38.2540 O.2       1 SUB1       -0.4120 
     27 C5         43.4140   41.5670   38.9410 C.2       1 SUB1        0.0060 
     28 C6         42.1280   41.2370   38.7910 C.2       1 SUB1        0.0590 
     29 H201       39.7699   40.6186   38.4769 H         1 SUB1        0.1000 
     30 H241       44.6446   39.3621   36.8489 H         1 SUB1        0.2260 
     31 H271       43.6865   42.3699   39.6244 H         1 SUB1        0.0260 
     32 H281       41.3785   41.7861   39.3590 H         1 SUB1        0.1180 
@<TRIPOS>BOND
     1   13    1 1    
     2   13    2 1    
     3   14    3 1    
     4   16    4 1    
     5   17    5 1    
     6   18    6 1    
     7    9    8 2    
     8    9   10 2    
     9    9   11 2    
    10   12    9 1    
    11   13   12 1    
    12   14   13 1    
    13   14   15 1    
    14   16   14 1    
    15   15   20 1    
    16   16   17 1    
    17   16   18 1    
    18   18   19 1    
    19   18   20 1    
    20   20   21 1    
    21   21   22 am   
    22   21   28 1    
    23   22   23 2    
    24   22   24 am   
    25   24   25 am   
    26   25   26 2    
    27   25   27 1    
    28   27   28 2    
    29   19    7 1    
    30   20   29 1    
    31   24   30 1    
    32   27   31 1    
    33   28   32 1    
@<TRIPOS>SUBSTRUCTURE
     1 SUB1        1 GROUP             0 ****  ****    0 ROOT 
