1loq_ligand
  -I-interpret- 

 32 33  0  0  0  0  0  0  0  0999 V2000
   40.6181   37.0406   36.2870 H   0  0  0  0  0
   40.0729   36.0444   37.6788 H   0  0  0  0  0
   38.2323   37.5458   38.0885 H   0  0  0  0  0
   38.2499   38.5548   35.5557 H   0  0  0  0  0
   36.9668   40.2207   36.4932 H   0  0  0  0  0
   40.3000   39.7452   35.6687 H   0  0  0  0  0
   38.5952   41.6402   36.9706 H   0  0  0  0  0
   39.1800   33.5330   36.3510 O   0  5  0  0  0
   39.1180   34.7040   35.2570 P   0  0  0  0  0
   40.3930   34.8170   34.4320 O   0  5  0  0  0
   37.9500   34.4720   34.3790 O   0  0  0  0  0
   38.7890   36.0630   36.0300 O   0  0  0  0  0
   39.7460   36.7240   36.8780 C   0  0  0  0  0
   39.0580   37.9290   37.4710 C   0  0  0  0  0
   39.9900   38.6330   38.3080 O   0  0  0  0  0
   38.4760   38.9770   36.5460 C   0  0  0  0  0
   37.3050   39.5700   37.0970 O   0  0  0  0  0
   39.6020   40.0150   36.4750 C   0  0  0  0  0
   39.1660   41.3750   36.2590 O   0  0  0  0  0
   40.2760   39.8940   37.8220 C   0  0  0  0  0
   41.7050   40.2160   37.9350 N   0  0  0  0  0
   42.6390   39.4970   37.1920 C   0  0  0  0  0
   42.2840   38.6140   36.4530 O   0  0  0  0  0
   43.9610   39.8690   37.3740 N   0  0  0  0  0
   44.4400   40.8780   38.2140 C   0  0  0  0  0
   45.6380   41.0640   38.2540 O   0  0  0  0  0
   43.4140   41.5670   38.9410 C   0  0  0  0  0
   42.1280   41.2370   38.7910 C   0  0  0  0  0
   39.7699   40.6186   38.4769 H   0  0  0  0  0
   44.6446   39.3621   36.8489 H   0  0  0  0  0
   43.6865   42.3699   39.6244 H   0  0  0  0  0
   41.3785   41.7861   39.3590 H   0  0  0  0  0
 13  1  1  0  0  0
 13  2  1  0  0  0
 14  3  1  0  0  0
 16  4  1  0  0  0
 17  5  1  0  0  0
 18  6  1  0  0  0
  9  8  1  0  0  0
  9 10  1  0  0  0
  9 11  2  0  0  0
 12  9  1  0  0  0
 13 12  1  0  0  0
 14 13  1  0  0  0
 14 15  1  0  0  0
 16 14  1  0  0  0
 15 20  1  0  0  0
 16 17  1  0  0  0
 16 18  1  0  0  0
 18 19  1  0  0  0
 18 20  1  0  0  0
 20 21  1  0  0  0
 21 22  1  0  0  0
 21 28  1  0  0  0
 22 23  2  0  0  0
 22 24  1  0  0  0
 24 25  1  0  0  0
 25 26  2  0  0  0
 25 27  1  0  0  0
 27 28  2  0  0  0
 19  7  1  0  0  0
 20 29  1  0  0  0
 24 30  1  0  0  0
 27 31  1  0  0  0
 28 32  1  0  0  0
M  END
$$$$
