1bnv_ligand
  -I-interpret- 

 43 45  0  0  0  0  0  0  0  0999 V2000
   -5.1565    4.3599   11.9299 H   0  0  0  0  0
   -3.5398    4.9141   11.3768 H   0  0  0  0  0
   -5.4570    1.8790   15.8760 C   0  0  0  0  0
   -4.1420    4.6350   12.2540 C   0  0  0  0  0
   -3.4840    3.4720   13.0120 C   0  0  0  0  0
   -1.5470    3.0460   12.4460 C   0  0  0  0  0
   -2.6170    8.7210   11.8780 C   0  0  0  0  0
   -1.8960    9.1920   12.9630 C   0  0  0  0  0
   -1.9140    8.4830   14.1610 C   0  0  0  0  0
   -2.6460    7.2920   14.2810 C   0  0  0  0  0
   -0.6030   10.1410   15.2420 C   0  0  0  0  0
   -5.6080   -0.7560   16.4350 N   0  0  0  0  0
   -5.9320    0.5970   16.9390 S   0  0  0  0  0
   -5.3140    0.8520   18.1880 O   0  0  0  0  0
   -7.3140    0.7730   16.9140 O   0  0  0  0  0
   -6.1480    3.4410   16.0360 S   0  0  0  0  0
   -5.2150    3.9570   14.7200 C   0  0  0  0  0
   -4.3770    2.9900   14.1530 C   0  0  0  0  0
   -4.5440    1.8080   14.8390 C   0  0  0  0  0
   -4.1910    5.7360   13.2140 N   0  0  0  0  0
   -5.3450    5.5640   14.1550 S   0  0  0  0  0
   -6.6280    5.7420   13.4100 O   0  0  0  0  0
   -5.2660    6.4310   15.3640 O   0  0  0  0  0
   -2.1620    3.8540   13.4980 N   0  3  0  0  0
   -3.3910    6.8190   13.1810 C   0  0  0  0  0
   -3.3590    7.5480   11.9850 C   0  0  0  0  0
   -1.3110    8.8950   15.2380 O   0  0  0  0  0
   -3.3567    2.6368   12.3076 H   0  0  0  0  0
   -0.4519    3.1130   12.5252 H   0  0  0  0  0
   -1.8670    3.4198   11.4622 H   0  0  0  0  0
   -1.8593    1.9974   12.5592 H   0  0  0  0  0
   -2.6034    9.2679   10.9421 H   0  0  0  0  0
   -1.3212   10.1072   12.8797 H   0  0  0  0  0
   -2.6389    6.7390   15.2133 H   0  0  0  0  0
   -0.1655   10.3109   16.2368 H   0  0  0  0  0
   -1.2987   10.9588   15.0029 H   0  0  0  0  0
    0.1986   10.1097   14.4894 H   0  0  0  0  0
   -5.8452   -1.5681   16.9829 H   0  0  0  0  0
   -4.0043    0.8963   14.5872 H   0  0  0  0  0
   -1.9591    3.5368   14.4330 H   0  0  0  0  0
   -1.9661    4.8403   13.4278 H   0  0  0  0  0
   -3.9212    7.1928   11.1289 H   0  0  0  0  0
   -5.1537   -0.8647   15.5508 H   0  0  0  0  0
  3 19  2  0  0  0
  3 16  1  0  0  0
  3 13  1  0  0  0
 13 12  1  0  0  0
 13 15  2  0  0  0
 13 14  2  0  0  0
 16 17  1  0  0  0
 17 21  1  0  0  0
 17 18  2  0  0  0
 18 19  1  0  0  0
 18  5  1  0  0  0
  5 24  1  0  0  0
  5  4  1  0  0  0
  4 20  1  0  0  0
 20 21  1  0  0  0
 20 25  1  0  0  0
 25 10  4  0  0  0
 25 26  4  0  0  0
 26  7  4  0  0  0
  7  8  4  0  0  0
  8  9  4  0  0  0
  9 27  1  0  0  0
  9 10  4  0  0  0
 27 11  1  0  0  0
 21 23  2  0  0  0
 21 22  2  0  0  0
 24  6  1  0  0  0
  4  1  1  0  0  0
  4  2  1  0  0  0
  5 28  1  0  0  0
  6 29  1  0  0  0
  6 30  1  0  0  0
  6 31  1  0  0  0
  7 32  1  0  0  0
  8 33  1  0  0  0
 10 34  1  0  0  0
 11 35  1  0  0  0
 11 36  1  0  0  0
 11 37  1  0  0  0
 12 38  1  0  0  0
 19 39  1  0  0  0
 24 40  1  0  0  0
 24 41  1  0  0  0
 26 42  1  0  0  0
 12 43  1  0  0  0
M  END
$$$$
