### 
### Created by X-TOOL on Tue Oct 25 02:13:41 2005
### 

@<TRIPOS>MOLECULE
1bnv_ligand
   43    45     1     0     0
SMALL
GAST_HUCK


@<TRIPOS>ATOM
      1 H41        -5.1565    4.3599   11.9299 H         1 SUB1        0.063
      2 H42        -3.5398    4.9141   11.3768 H         1 SUB1        0.063
      3 C3         -5.4570    1.8790   15.8760 C.2       1 SUB1        0.159
      4 C9         -4.1420    4.6350   12.2540 C.3       1 SUB1        0.104
      5 C10        -3.4840    3.4720   13.0120 C.3       1 SUB1        0.024
      6 C16        -1.5470    3.0460   12.4460 C.3       1 SUB1       -0.043
      7 C19        -2.6170    8.7210   11.8780 C.ar      1 SUB1       -0.086
      8 C20        -1.8960    9.1920   12.9630 C.ar      1 SUB1       -0.050
      9 C21        -1.9140    8.4830   14.1610 C.ar      1 SUB1        0.075
     10 C22        -2.6460    7.2920   14.2810 C.ar      1 SUB1       -0.018
     11 C24        -0.6030   10.1410   15.2420 C.3       1 SUB1        0.059
     12 N21        -5.6080   -0.7560   16.4350 N.am      1 SUB1       -0.261
     13 S1         -5.9320    0.5970   16.9390 S.o2      1 SUB1        0.074
     14 O1A        -5.3140    0.8520   18.1880 O.2       1 SUB1       -0.150
     15 O2A        -7.3140    0.7730   16.9140 O.2       1 SUB1       -0.150
     16 S2         -6.1480    3.4410   16.0360 S.3       1 SUB1       -0.001
     17 C6         -5.2150    3.9570   14.7200 C.2       1 SUB1        0.167
     18 C5         -4.3770    2.9900   14.1530 C.2       1 SUB1        0.016
     19 C4         -4.5440    1.8080   14.8390 C.2       1 SUB1       -0.039
     20 N8         -4.1910    5.7360   13.2140 N.am      1 SUB1       -0.171
     21 S7         -5.3450    5.5640   14.1550 S.o2      1 SUB1        0.094
     22 O3B        -6.6280    5.7420   13.4100 O.2       1 SUB1       -0.146
     23 O4B        -5.2660    6.4310   15.3640 O.2       1 SUB1       -0.146
     24 N15        -2.1620    3.8540   13.4980 N.4       1 SUB1        0.237
     25 C17        -3.3910    6.8190   13.1810 C.ar      1 SUB1        0.057
     26 C18        -3.3590    7.5480   11.9850 C.ar      1 SUB1       -0.056
     27 O23        -1.3110    8.8950   15.2380 O.3       1 SUB1       -0.326
     28 H51        -3.3567    2.6368   12.3076 H         1 SUB1        0.099
     29 H61        -0.4519    3.1130   12.5252 H         1 SUB1        0.078
     30 H62        -1.8670    3.4198   11.4622 H         1 SUB1        0.078
     31 H63        -1.8593    1.9974   12.5592 H         1 SUB1        0.078
     32 H71        -2.6034    9.2679   10.9421 H         1 SUB1        0.055
     33 H81        -1.3212   10.1072   12.8797 H         1 SUB1        0.040
     34 H101       -2.6389    6.7390   15.2133 H         1 SUB1        0.040
     35 H111       -0.1655   10.3109   16.2368 H         1 SUB1        0.058
     36 H112       -1.2987   10.9588   15.0029 H         1 SUB1        0.058
     37 H113        0.1986   10.1097   14.4894 H         1 SUB1        0.058
     38 H121       -5.8452   -1.5681   16.9829 H         1 SUB1        0.163
     39 H191       -4.0043    0.8963   14.5872 H         1 SUB1        0.041
     40 H241       -1.9591    3.5368   14.4330 H         1 SUB1        0.202
     41 H242       -1.9661    4.8403   13.4278 H         1 SUB1        0.202
     42 H261       -3.9212    7.1928   11.1289 H         1 SUB1        0.039
     43 H122       -5.1537   -0.8647   15.5508 H         1 SUB1        0.163
@<TRIPOS>BOND
     1    3   19 2  
     2    3   16 1  
     3    3   13 1  
     4   13   12 1  
     5   13   15 2  
     6   13   14 2  
     7   16   17 1  
     8   17   21 1  
     9   17   18 2  
    10   18   19 1  
    11   18    5 1  
    12    5   24 1  
    13    5    4 1  
    14    4   20 1  
    15   20   21 1  
    16   20   25 1  
    17   25   10 ar 
    18   25   26 ar 
    19   26    7 ar 
    20    7    8 ar 
    21    8    9 ar 
    22    9   27 1  
    23    9   10 ar 
    24   27   11 1  
    25   21   23 2  
    26   21   22 2  
    27   24    6 1  
    28    4    1 1  
    29    4    2 1  
    30    5   28 1  
    31    6   29 1  
    32    6   30 1  
    33    6   31 1  
    34    7   32 1  
    35    8   33 1  
    36   10   34 1  
    37   11   35 1  
    38   11   36 1  
    39   11   37 1  
    40   12   38 1  
    41   19   39 1  
    42   24   40 1  
    43   24   41 1  
    44   26   42 1  
    45   12   43 1  
@<TRIPOS>SUBSTRUCTURE
     1 SUB1        1 GROUP

