### 
### Created by X-TOOL on Mon Oct 24 22:40:14 2005
### 

@<TRIPOS>MOLECULE
1b3f_ligand
   64    64     1     0     0
SMALL
GAST_HUCK


@<TRIPOS>ATOM
      1 N           6.9140   16.6450   15.2960 N.4       1 SUB1        0.238
      2 CA          6.4130   17.9440   14.7500 C.3       1 SUB1        0.065
      3 C           5.1480   18.4300   15.4470 C.2       1 SUB1        0.227
      4 O           4.3320   17.5910   15.8510 O.2       1 SUB1       -0.391
      5 CB          6.2200   17.9060   13.2230 C.3       1 SUB1        0.008
      6 CG          5.2860   16.7890   12.7530 C.3       1 SUB1       -0.041
      7 CD          5.2800   16.7040   11.2170 C.3       1 SUB1       -0.012
      8 CE          6.5930   16.0980   10.6610 C.3       1 SUB1       -0.035
      9 NZ          6.6160   14.6150   10.9480 N.4       1 SUB1        0.219
     10 N           5.0070   19.7440   15.6040 N.am      1 SUB1       -0.259
     11 CA          3.8060   20.2520   16.2970 C.3       1 SUB1        0.142
     12 C           2.5570   20.1930   15.4230 C.2       1 SUB1        0.207
     13 O           2.6300   20.5190   14.2370 O.2       1 SUB1       -0.394
     14 CB          3.9920   21.7460   16.6740 C.3       1 SUB1        0.043
     15 CG          4.9770   21.8690   17.8130 C.2       1 SUB1        0.056
     16 ND1         4.8140   21.3600   19.0710 N.pl3     1 SUB1       -0.262
     17 CD2         6.1940   22.4580   17.7740 C.2       1 SUB1       -0.028
     18 CE1         5.8910   21.6470   19.7900 C.2       1 SUB1        0.087
     19 NE2         6.7560   22.3220   19.0340 N.2       1 SUB1       -0.344
     20 N           1.4200   19.8270   16.0570 N.am      1 SUB1       -0.268
     21 CA          0.1640   19.8440   15.3010 C.3       1 SUB1        0.081
     22 C          -0.8520   20.7630   16.0080 C.2       1 SUB1        0.053
     23 O          -1.8330   21.1520   15.3540 O.co2     1 SUB1       -0.564
     24 CB         -0.4780   18.4580   15.1660 C.3       1 SUB1       -0.018
     25 CG         -1.5920   18.4640   14.1110 C.3       1 SUB1       -0.043
     26 CD         -2.4430   17.2120   14.2930 C.3       1 SUB1       -0.012
     27 CE         -3.6670   17.2530   13.4280 C.3       1 SUB1       -0.035
     28 NZ         -3.3780   17.5310   11.9980 N.4       1 SUB1        0.219
     29 OXT        -0.6730   21.1220   17.1810 O.co2     1 SUB1       -0.564
     30 H11         6.2990   16.3294   16.0296 H         1 SUB1        0.201
     31 H21         7.1948   18.6904   14.9541 H         1 SUB1        0.110
     32 H51         7.2029   17.7593   12.7514 H         1 SUB1        0.035
     33 H52         5.7992   18.8700   12.9012 H         1 SUB1        0.035
     34 H61         4.2658   16.9964   13.1082 H         1 SUB1        0.027
     35 H62         5.6307   15.8302   13.1675 H         1 SUB1        0.027
     36 H71         5.1552   17.7168   10.8063 H         1 SUB1        0.032
     37 H72         4.4363   16.0733   10.9001 H         1 SUB1        0.032
     38 H81         7.4549   16.5799   11.1457 H         1 SUB1        0.081
     39 H82         6.6435   16.2634    9.5747 H         1 SUB1        0.081
     40 H91         6.5786   14.4649   11.9441 H         1 SUB1        0.199
     41 H92         7.4645   14.2145   10.5795 H         1 SUB1        0.199
     42 H93         5.8203   14.1760   10.5120 H         1 SUB1        0.199
     43 H101        5.7014   20.3756   15.2591 H         1 SUB1        0.189
     44 H111        3.6459   19.6534   17.2058 H         1 SUB1        0.082
     45 H141        3.0239   22.1680   16.9816 H         1 SUB1        0.049
     46 H142        4.3720   22.2980   15.8017 H         1 SUB1        0.049
     47 H161        3.9906   20.8394   19.4055 H         1 SUB1        0.239
     48 H171        6.6476   22.9476   16.9135 H         1 SUB1        0.032
     49 H181        6.0441   21.3741   20.8331 H         1 SUB1        0.115
     50 H201        1.4355   19.5514   17.0182 H         1 SUB1        0.190
     51 H211        0.3721   20.2354   14.2943 H         1 SUB1        0.078
     52 H241       -0.9042   18.1637   16.1364 H         1 SUB1        0.032
     53 H242        0.2936   17.7323   14.8693 H         1 SUB1        0.032
     54 H251       -1.1487   18.4673   13.1043 H         1 SUB1        0.027
     55 H252       -2.2182   19.3593   14.2387 H         1 SUB1        0.027
     56 H261       -2.7513   17.1386   15.3463 H         1 SUB1        0.032
     57 H262       -1.8439   16.3296   14.0240 H         1 SUB1        0.032
     58 H271       -4.3340   18.0412   13.8071 H         1 SUB1        0.081
     59 H272       -4.1739   16.2792   13.4970 H         1 SUB1        0.081
     60 H281       -2.9305   18.4303   11.9143 H         1 SUB1        0.199
     61 H282       -4.2400   17.5348   11.4755 H         1 SUB1        0.199
     62 H283       -2.7674   16.8166   11.6335 H         1 SUB1        0.199
     63 H12         7.8424   16.7723   15.6674 H         1 SUB1        0.201
     64 H13         6.9383   15.9577   14.5590 H         1 SUB1        0.201
@<TRIPOS>BOND
     1    3    2 1  
     2    2    5 1  
     3    2    1 1  
     4    5    6 1  
     5    6    7 1  
     6    7    8 1  
     7    8    9 1  
     8    3    4 2  
     9   12   11 1  
    10   11   14 1  
    11   11   10 1  
    12   14   15 1  
    13   15   17 2  
    14   15   16 1  
    15   16   18 1  
    16   18   19 2  
    17   17   19 1  
    18   12   13 2  
    19   21   22 1  
    20   21   24 1  
    21   20   21 1  
    22   24   25 1  
    23   25   26 1  
    24   26   27 1  
    25   27   28 1  
    26   22   29 2  
    27   22   23 2  
    28   10    3 am 
    29   12   20 am 
    30    1   30 1  
    31    2   31 1  
    32    5   32 1  
    33    5   33 1  
    34    6   34 1  
    35    6   35 1  
    36    7   36 1  
    37    7   37 1  
    38    8   38 1  
    39    8   39 1  
    40    9   40 1  
    41    9   41 1  
    42    9   42 1  
    43   10   43 1  
    44   11   44 1  
    45   14   45 1  
    46   14   46 1  
    47   16   47 1  
    48   17   48 1  
    49   18   49 1  
    50   20   50 1  
    51   21   51 1  
    52   24   52 1  
    53   24   53 1  
    54   25   54 1  
    55   25   55 1  
    56   26   56 1  
    57   26   57 1  
    58   27   58 1  
    59   27   59 1  
    60   28   60 1  
    61   28   61 1  
    62   28   62 1  
    63    1   63 1  
    64    1   64 1  
@<TRIPOS>SUBSTRUCTURE
     1 SUB1        1 GROUP

