1b3f_ligand
  -I-interpret- 

 64 64  0  0  0  0  0  0  0  0999 V2000
    6.9140   16.6450   15.2960 N   0  3  0  0  0
    6.4130   17.9440   14.7500 C   0  0  0  0  0
    5.1480   18.4300   15.4470 C   0  0  0  0  0
    4.3320   17.5910   15.8510 O   0  0  0  0  0
    6.2200   17.9060   13.2230 C   0  0  0  0  0
    5.2860   16.7890   12.7530 C   0  0  0  0  0
    5.2800   16.7040   11.2170 C   0  0  0  0  0
    6.5930   16.0980   10.6610 C   0  0  0  0  0
    6.6160   14.6150   10.9480 N   0  3  0  0  0
    5.0070   19.7440   15.6040 N   0  0  0  0  0
    3.8060   20.2520   16.2970 C   0  0  0  0  0
    2.5570   20.1930   15.4230 C   0  0  0  0  0
    2.6300   20.5190   14.2370 O   0  0  0  0  0
    3.9920   21.7460   16.6740 C   0  0  0  0  0
    4.9770   21.8690   17.8130 C   0  0  0  0  0
    4.8140   21.3600   19.0710 N   0  0  0  0  0
    6.1940   22.4580   17.7740 C   0  0  0  0  0
    5.8910   21.6470   19.7900 C   0  0  0  0  0
    6.7560   22.3220   19.0340 N   0  0  0  0  0
    1.4200   19.8270   16.0570 N   0  0  0  0  0
    0.1640   19.8440   15.3010 C   0  0  0  0  0
   -0.8520   20.7630   16.0080 C   0  0  0  0  0
   -1.8330   21.1520   15.3540 O   0  5  0  0  0
   -0.4780   18.4580   15.1660 C   0  0  0  0  0
   -1.5920   18.4640   14.1110 C   0  0  0  0  0
   -2.4430   17.2120   14.2930 C   0  0  0  0  0
   -3.6670   17.2530   13.4280 C   0  0  0  0  0
   -3.3780   17.5310   11.9980 N   0  3  0  0  0
   -0.6730   21.1220   17.1810 O   0  0  0  0  0
    6.2990   16.3294   16.0296 H   0  0  0  0  0
    7.1948   18.6904   14.9541 H   0  0  0  0  0
    7.2029   17.7593   12.7514 H   0  0  0  0  0
    5.7992   18.8700   12.9012 H   0  0  0  0  0
    4.2658   16.9964   13.1082 H   0  0  0  0  0
    5.6307   15.8302   13.1675 H   0  0  0  0  0
    5.1552   17.7168   10.8063 H   0  0  0  0  0
    4.4363   16.0733   10.9001 H   0  0  0  0  0
    7.4549   16.5799   11.1457 H   0  0  0  0  0
    6.6435   16.2634    9.5747 H   0  0  0  0  0
    6.5786   14.4649   11.9441 H   0  0  0  0  0
    7.4645   14.2145   10.5795 H   0  0  0  0  0
    5.8203   14.1760   10.5120 H   0  0  0  0  0
    5.7014   20.3756   15.2591 H   0  0  0  0  0
    3.6459   19.6534   17.2058 H   0  0  0  0  0
    3.0239   22.1680   16.9816 H   0  0  0  0  0
    4.3720   22.2980   15.8017 H   0  0  0  0  0
    3.9906   20.8394   19.4055 H   0  0  0  0  0
    6.6476   22.9476   16.9135 H   0  0  0  0  0
    6.0441   21.3741   20.8331 H   0  0  0  0  0
    1.4355   19.5514   17.0182 H   0  0  0  0  0
    0.3721   20.2354   14.2943 H   0  0  0  0  0
   -0.9042   18.1637   16.1364 H   0  0  0  0  0
    0.2936   17.7323   14.8693 H   0  0  0  0  0
   -1.1487   18.4673   13.1043 H   0  0  0  0  0
   -2.2182   19.3593   14.2387 H   0  0  0  0  0
   -2.7513   17.1386   15.3463 H   0  0  0  0  0
   -1.8439   16.3296   14.0240 H   0  0  0  0  0
   -4.3340   18.0412   13.8071 H   0  0  0  0  0
   -4.1739   16.2792   13.4970 H   0  0  0  0  0
   -2.9305   18.4303   11.9143 H   0  0  0  0  0
   -4.2400   17.5348   11.4755 H   0  0  0  0  0
   -2.7674   16.8166   11.6335 H   0  0  0  0  0
    7.8424   16.7723   15.6674 H   0  0  0  0  0
    6.9383   15.9577   14.5590 H   0  0  0  0  0
  3  2  1  0  0  0
  2  5  1  0  0  0
  2  1  1  0  0  0
  5  6  1  0  0  0
  6  7  1  0  0  0
  7  8  1  0  0  0
  8  9  1  0  0  0
  3  4  2  0  0  0
 12 11  1  0  0  0
 11 14  1  0  0  0
 11 10  1  0  0  0
 14 15  1  0  0  0
 15 17  2  0  0  0
 15 16  1  0  0  0
 16 18  1  0  0  0
 18 19  2  0  0  0
 17 19  1  0  0  0
 12 13  2  0  0  0
 21 22  1  0  0  0
 21 24  1  0  0  0
 20 21  1  0  0  0
 24 25  1  0  0  0
 25 26  1  0  0  0
 26 27  1  0  0  0
 27 28  1  0  0  0
 22 29  2  0  0  0
 22 23  1  0  0  0
 10  3  1  0  0  0
 12 20  1  0  0  0
  1 30  1  0  0  0
  2 31  1  0  0  0
  5 32  1  0  0  0
  5 33  1  0  0  0
  6 34  1  0  0  0
  6 35  1  0  0  0
  7 36  1  0  0  0
  7 37  1  0  0  0
  8 38  1  0  0  0
  8 39  1  0  0  0
  9 40  1  0  0  0
  9 41  1  0  0  0
  9 42  1  0  0  0
 10 43  1  0  0  0
 11 44  1  0  0  0
 14 45  1  0  0  0
 14 46  1  0  0  0
 16 47  1  0  0  0
 17 48  1  0  0  0
 18 49  1  0  0  0
 20 50  1  0  0  0
 21 51  1  0  0  0
 24 52  1  0  0  0
 24 53  1  0  0  0
 25 54  1  0  0  0
 25 55  1  0  0  0
 26 56  1  0  0  0
 26 57  1  0  0  0
 27 58  1  0  0  0
 27 59  1  0  0  0
 28 60  1  0  0  0
 28 61  1  0  0  0
 28 62  1  0  0  0
  1 63  1  0  0  0
  1 64  1  0  0  0
M  END
$$$$
