### 
### Created by X-TOOL on Mon Oct 24 22:41:50 2005
### 

@<TRIPOS>MOLECULE
1f5k_ligand
   18    18     1     0     0
SMALL
GAST_HUCK


@<TRIPOS>ATOM
      1 H111       30.4954    3.7147   29.2711 H         1 SUB1        0.066
      2 H121       28.5902    5.2092   29.7772 H         1 SUB1        0.062
      3 H131       28.5945    7.5750   28.9782 H         1 SUB1        0.062
      4 H141       30.5415    8.4239   27.6682 H         1 SUB1        0.062
      5 H151       32.4520    6.9328   27.1603 H         1 SUB1        0.066
      6 H171       34.5713    4.0948   26.9943 H         1 SUB1        0.192
      7 H172       33.8401    5.7151   26.8438 H         1 SUB1        0.192
      8 H181       31.9948    2.6746   28.8140 H         1 SUB1        0.192
      9 H182       33.5900    2.4788   28.0396 H         1 SUB1        0.192
     10 C1         31.6410    5.1930   28.1710 C.ar      1 SUB1        0.186
     11 C2         30.5160    4.7390   28.9170 C.ar      1 SUB1       -0.007
     12 C3         29.4310    5.5860   29.2060 C.ar      1 SUB1       -0.057
     13 C4         29.4310    6.9220   28.7570 C.ar      1 SUB1       -0.062
     14 C5         30.5300    7.3980   28.0180 C.ar      1 SUB1       -0.057
     15 C6         31.6150    6.5470   27.7310 C.ar      1 SUB1       -0.007
     16 C          32.7410    4.3330   27.8770 C.cat     1 SUB1        0.316
     17 N1         33.7960    4.7450   27.1870 N.pl3     1 SUB1       -0.200
     18 N2         32.7780    3.0680   28.2730 N.pl3     1 SUB1       -0.200
@<TRIPOS>BOND
     1   11    1 1  
     2   12    2 1  
     3   13    3 1  
     4   14    4 1  
     5   10   16 1  
     6   10   15 ar 
     7   11   10 ar 
     8   12   11 ar 
     9   13   12 ar 
    10   13   14 ar 
    11   14   15 ar 
    12   16   18 1  
    13   16   17 1  
    14   15    5 1  
    15   17    6 1  
    16   17    7 1  
    17   18    8 1  
    18   18    9 1  
@<TRIPOS>SUBSTRUCTURE
     1 SUB1        1 GROUP

