1f5k_ligand
  -I-interpret- 

 18 18  0  0  0  0  0  0  0  0999 V2000
   30.4954    3.7147   29.2711 H   0  0  0  0  0
   28.5902    5.2092   29.7772 H   0  0  0  0  0
   28.5945    7.5750   28.9782 H   0  0  0  0  0
   30.5415    8.4239   27.6682 H   0  0  0  0  0
   32.4520    6.9328   27.1603 H   0  0  0  0  0
   34.5713    4.0948   26.9943 H   0  0  0  0  0
   33.8401    5.7151   26.8438 H   0  0  0  0  0
   31.9948    2.6746   28.8140 H   0  0  0  0  0
   33.5900    2.4788   28.0396 H   0  0  0  0  0
   31.6410    5.1930   28.1710 C   0  0  0  0  0
   30.5160    4.7390   28.9170 C   0  0  0  0  0
   29.4310    5.5860   29.2060 C   0  0  0  0  0
   29.4310    6.9220   28.7570 C   0  0  0  0  0
   30.5300    7.3980   28.0180 C   0  0  0  0  0
   31.6150    6.5470   27.7310 C   0  0  0  0  0
   32.7410    4.3330   27.8770 C   0  3  0  0  0
   33.7960    4.7450   27.1870 N   0  0  0  0  0
   32.7780    3.0680   28.2730 N   0  0  0  0  0
 11  1  1  0  0  0
 12  2  1  0  0  0
 13  3  1  0  0  0
 14  4  1  0  0  0
 10 16  1  0  0  0
 10 15  4  0  0  0
 11 10  4  0  0  0
 12 11  4  0  0  0
 13 12  4  0  0  0
 13 14  4  0  0  0
 14 15  4  0  0  0
 16 18  1  0  0  0
 16 17  1  0  0  0
 15  5  1  0  0  0
 17  6  1  0  0  0
 17  7  1  0  0  0
 18  8  1  0  0  0
 18  9  1  0  0  0
M  END
$$$$
