### 
### Created by X-TOOL on Mon Oct 24 22:46:16 2005
### 

@<TRIPOS>MOLECULE
1gu1_ligand
   21    21     1     0     0
SMALL
GAST_HUCK


@<TRIPOS>ATOM
      1 C2         28.6300   50.9780   58.6370 C.3       1 SUB1       -0.053
      2 C3         27.8860   49.7450   58.5610 C.3       1 SUB1        0.089
      3 O3         28.4970   48.8030   57.7520 O.3       1 SUB1       -0.386
      4 C4         27.7740   49.1790   59.8430 C.3       1 SUB1        0.148
      5 O4         26.8960   48.1190   59.9030 O.3       1 SUB1       -0.358
      6 C5         27.4170   50.1340   60.8480 C.2       1 SUB1        0.007
      7 C6         27.5280   51.5480   60.6290 C.2       1 SUB1       -0.080
      8 C          28.8440   53.1510   59.6440 C.2       1 SUB1        0.081
      9 O1         30.0840   53.2610   59.1970 O.co2     1 SUB1       -0.500
     10 O30        26.9640   52.5050   58.6850 O.3       1 SUB1       -0.484
     11 O2         28.4370   54.2040   60.3050 O.co2     1 SUB1       -0.500
     12 C1         28.0270   52.0020   59.4010 C.3       1 SUB1        0.055
     13 H11        28.7682   51.3550   57.6129 H         1 SUB1        0.007
     14 H12        29.6113   50.7557   59.0815 H         1 SUB1        0.007
     15 H21        26.8838   49.9643   58.1641 H         1 SUB1        0.066
     16 H31        27.9703   48.0125   57.7349 H         1 SUB1        0.210
     17 H41        28.7708   48.7909   60.0994 H         1 SUB1        0.103
     18 H51        27.1884   47.4333   59.3141 H         1 SUB1        0.218
     19 H61        27.0497   49.7763   61.8088 H         1 SUB1        0.139
     20 H71        27.2301   52.2545   61.4024 H         1 SUB1        0.057
     21 H101       26.5681   53.2204   59.1686 H         1 SUB1        0.174
@<TRIPOS>BOND
     1    1    2 1  
     2   12    1 1  
     3    2    3 1  
     4    2    4 1  
     5    4    5 1  
     6    6    4 1  
     7    7    6 2  
     8   12    7 1  
     9    8    9 2  
    10    8   11 2  
    11    8   12 1  
    12   12   10 1  
    13    1   13 1  
    14    1   14 1  
    15    2   15 1  
    16    3   16 1  
    17    4   17 1  
    18    5   18 1  
    19    6   19 1  
    20    7   20 1  
    21   10   21 1  
@<TRIPOS>SUBSTRUCTURE
     1 SUB1        1 GROUP

