### 
### Created by X-TOOL on Mon Oct 24 21:59:15 2005
### 

@<TRIPOS>MOLECULE
1vwl_ligand
  132   136     1     0     0
SMALL
GAST_HUCK


@<TRIPOS>ATOM
      1 N          32.8650   14.1820  -13.2150 N.am      1 SUB1       -0.264
      2 CA         32.1150   14.4180  -11.9520 C.3       1 SUB1        0.137
      3 C          33.2130   14.8690  -11.0020 C.2       1 SUB1        0.208
      4 O          34.2130   14.1640  -10.9210 O.2       1 SUB1       -0.394
      5 CB         31.4320   13.1080  -11.3810 C.3       1 SUB1        0.014
      6 CG         30.5270   13.5520  -10.1980 C.2       1 SUB1       -0.003
      7 ND1        31.0300   13.8560   -9.0070 N.2       1 SUB1       -0.325
      8 CD2        29.1370   13.7330  -10.2150 C.2       1 SUB1        0.029
      9 CE1        29.9780   14.2200   -8.3150 C.2       1 SUB1        0.091
     10 NE2        28.8720   14.1480   -9.0090 N.pl3     1 SUB1       -0.275
     11 H11        33.2060   13.2830  -13.4260 H         1 SUB1        0.188
     12 H21        31.3900   15.1940  -12.1230 H         1 SUB1        0.082
     13 H51        30.8210   12.6270  -12.1280 H         1 SUB1        0.042
     14 H52        32.1830   12.4190  -11.0220 H         1 SUB1        0.042
     15 H81        28.4410   13.5650  -11.0280 H         1 SUB1        0.073
     16 H91        30.0190   14.5440   -7.2800 H         1 SUB1        0.120
     17 H101       27.9700   14.3840   -8.6560 H         1 SUB1        0.236
     18 N          33.0150   16.0000  -10.3280 N.am      1 SUB1       -0.250
     19 CA         33.9450   16.5280   -9.2710 C.3       1 SUB1        0.134
     20 C          34.3510   15.5430   -8.1420 C.2       1 SUB1        0.204
     21 O          35.1280   15.8900   -7.2660 O.2       1 SUB1       -0.394
     22 CB         33.2360   17.7980   -8.7120 C.3       1 SUB1       -0.010
     23 CG         31.7490   17.5950   -9.0920 C.3       1 SUB1       -0.028
     24 CD         31.8460   16.9520  -10.4880 C.3       1 SUB1        0.037
     25 H191       34.8560   16.8360   -9.7670 H         1 SUB1        0.080
     26 H221       33.3510   17.8570   -7.6380 H         1 SUB1        0.031
     27 H222       33.6560   18.6780   -9.1510 H         1 SUB1        0.031
     28 H231       31.2280   16.9530   -8.3900 H         1 SUB1        0.029
     29 H232       31.2390   18.5440   -9.1440 H         1 SUB1        0.029
     30 H241       30.9190   16.4330  -10.6860 H         1 SUB1        0.052
     31 H242       32.0510   17.6840  -11.2600 H         1 SUB1        0.052
     32 N          33.8230   14.3510   -8.1620 N.am      1 SUB1       -0.264
     33 CA         34.2210   13.4000   -7.0780 C.3       1 SUB1        0.133
     34 C          35.2410   12.4280   -7.6620 C.2       1 SUB1        0.204
     35 O          35.8770   11.7160   -6.9050 O.2       1 SUB1       -0.394
     36 CB         33.0210   12.5790   -6.5760 C.3       1 SUB1        0.004
     37 CG         33.4550   11.8980   -5.2410 C.3       1 SUB1        0.041
     38 CD         32.2400   11.2030   -4.7060 C.2       1 SUB1        0.174
     39 OE1        31.1580   11.7480   -4.7710 O.2       1 SUB1       -0.397
     40 NE2        32.3700   10.0230   -4.1800 N.am      1 SUB1       -0.301
     41 H321       33.1870   14.1010   -8.8600 H         1 SUB1        0.188
     42 H331       34.6890   13.9450   -6.2660 H         1 SUB1        0.080
     43 H361       32.1590   13.2120   -6.4090 H         1 SUB1        0.034
     44 H362       32.7500   11.8200   -7.3000 H         1 SUB1        0.034
     45 H371       34.2220   11.1540   -5.4050 H         1 SUB1        0.050
     46 H372       33.8050   12.6150   -4.5100 H         1 SUB1        0.050
     47 H401       31.5970    9.5370   -3.8220 H         1 SUB1        0.181
     48 H402       33.2510    9.5970   -4.1380 H         1 SUB1        0.181
     49 N          35.3650   12.4310   -8.9600 N.am      1 SUB1       -0.266
     50 CA         36.3240   11.5150   -9.6010 C.3       1 SUB1        0.120
     51 C          37.5950   12.2700   -9.9190 C.2       1 SUB1        0.203
     52 O          37.6670   13.4830   -9.7270 O.2       1 SUB1       -0.394
     53 H491       34.8440   13.0390   -9.5210 H         1 SUB1        0.188
     54 H501       36.5380   10.6820   -8.9450 H         1 SUB1        0.076
     55 H502       35.8850   11.1520  -10.5180 H         1 SUB1        0.076
     56 N          38.5600   11.4940  -10.3990 N.am      1 SUB1       -0.250
     57 CA         39.9210   12.0080  -10.7110 C.3       1 SUB1        0.134
     58 C          39.8400   13.0960  -11.8160 C.2       1 SUB1        0.207
     59 O          38.7760   13.3920  -12.3360 O.2       1 SUB1       -0.394
     60 CB         40.7500   10.7110  -11.1170 C.3       1 SUB1       -0.010
     61 CG         39.6790    9.7110  -11.6510 C.3       1 SUB1       -0.028
     62 CD         38.4480   10.0110  -10.7190 C.3       1 SUB1        0.037
     63 H571       40.3180   12.4580   -9.8130 H         1 SUB1        0.080
     64 H601       41.4330   10.9600  -11.9170 H         1 SUB1        0.031
     65 H602       41.3050   10.3220  -10.2750 H         1 SUB1        0.031
     66 H611       39.4430    9.9120  -12.6890 H         1 SUB1        0.029
     67 H612       40.0070    8.6870  -11.5520 H         1 SUB1        0.029
     68 H621       37.5250    9.8250  -11.2520 H         1 SUB1        0.052
     69 H622       38.4580    9.4350   -9.8060 H         1 SUB1        0.052
     70 N          40.9830   13.6490  -12.1440 N.am      1 SUB1       -0.250
     71 CA         41.0970   14.5530  -13.3130 C.3       1 SUB1        0.134
     72 C          40.6770   13.7210  -14.5380 C.2       1 SUB1        0.204
     73 O          40.5740   12.5090  -14.4700 O.2       1 SUB1       -0.394
     74 CB         42.5740   14.9830  -13.3180 C.3       1 SUB1       -0.010
     75 CG         43.0030   14.7810  -11.8150 C.3       1 SUB1       -0.028
     76 CD         42.2900   13.4780  -11.4370 C.3       1 SUB1        0.037
     77 H711       40.4140   15.3810  -13.1790 H         1 SUB1        0.080
     78 H741       43.1580   14.3540  -13.9850 H         1 SUB1        0.031
     79 H742       42.6780   16.0150  -13.6200 H         1 SUB1        0.031
     80 H751       44.0770   14.6700  -11.7250 H         1 SUB1        0.029
     81 H752       42.6600   15.5880  -11.1860 H         1 SUB1        0.029
     82 H761       42.8060   12.6170  -11.8340 H         1 SUB1        0.052
     83 H762       42.1540   13.3740  -10.3740 H         1 SUB1        0.052
     84 N          40.4630   14.3760  -15.6360 N.am      1 SUB1       -0.266
     85 CA         40.0480   13.6080  -16.8470 C.3       1 SUB1        0.110
     86 C          41.2940   12.9800  -17.4950 C.2       1 SUB1        0.202
     87 O          42.3430   12.9030  -16.8820 O.2       1 SUB1       -0.394
     88 CB         39.3540   14.5890  -17.7930 C.3       1 SUB1       -0.135
     89 SG         38.0800   15.6060  -17.0000 S.3       1 SUB1       -0.790
     90 H841       40.5800   15.3440  -15.6630 H         1 SUB1        0.188
     91 H851       39.3720   12.8200  -16.5420 H         1 SUB1        0.078
     92 H881       40.1080   15.2480  -18.2080 H         1 SUB1        0.004
     93 H882       38.9150   14.0510  -18.6210 H         1 SUB1        0.004
     94 N          41.1060   12.5540  -18.7160 N.am      1 SUB1       -0.264
     95 CA         42.2020   11.9200  -19.4990 C.3       1 SUB1        0.131
     96 C          43.3270   12.9430  -19.6290 C.2       1 SUB1        0.199
     97 O          43.1040   14.1350  -19.6150 O.2       1 SUB1       -0.395
     98 CB         41.6610   11.5360  -20.8990 C.3       1 SUB1       -0.012
     99 CG         42.7830   10.9910  -21.8130 C.3       1 SUB1       -0.044
    100 CD         42.2100   10.7190  -23.2290 C.3       1 SUB1       -0.012
    101 CE         43.3650   10.3680  -24.1860 C.3       1 SUB1       -0.035
    102 NZ         42.8330   10.1080  -25.5540 N.4       1 SUB1        0.219
    103 H941       40.2260   12.6610  -19.1170 H         1 SUB1        0.188
    104 H951       42.5550   11.0620  -18.9420 H         1 SUB1        0.080
    105 H981       40.8740   10.8030  -20.8020 H         1 SUB1        0.031
    106 H982       41.2510   12.4290  -21.3510 H         1 SUB1        0.031
    107 H991       43.5680   11.7320  -21.8820 H         1 SUB1        0.027
    108 H992       43.1930   10.0870  -21.3880 H         1 SUB1        0.027
    109 H1001      41.5010    9.9040  -23.2020 H         1 SUB1        0.032
    110 H1002      41.6990   11.5980  -23.5990 H         1 SUB1        0.032
    111 H1011      44.0630   11.1920  -24.2460 H         1 SUB1        0.081
    112 H1012      43.8910    9.4860  -23.8500 H         1 SUB1        0.081
    113 H1021      41.7980   10.2140  -25.5520 H         1 SUB1        0.199
    114 H1022      43.2490   10.7870  -26.2220 H         1 SUB1        0.199
    115 H1023      43.0820    9.1410  -25.8430 H         1 SUB1        0.199
    116 N          44.5450   12.5250  -19.7620 N.am      1 SUB1       -0.299
    117 H1161      44.7390   11.5690  -19.7720 H         1 SUB1        0.182
    118 H1162      45.2560   13.1880  -19.8500 H         1 SUB1        0.182
    119 C1         33.0430   15.1960  -14.0310 C.2       1 SUB1        0.178
    120 O1         32.6020   16.3040  -13.7610 O.2       1 SUB1       -0.397
    121 C2         33.8290   14.9530  -15.3590 C.3       1 SUB1        0.035
    122 C3         35.3690   14.8180  -15.0790 C.3       1 SUB1       -0.063
    123 C4         36.0580   13.8120  -16.0810 C.3       1 SUB1       -0.181
    124 C5         36.6410   14.5410  -17.3100 C.3       1 SUB1       -0.345
    125 H1211      33.4380   14.0600  -15.8280 H         1 SUB1        0.050
    126 H1212      33.6500   15.7860  -16.0250 H         1 SUB1        0.050
    127 H1221      35.8040   15.7980  -15.2110 H         1 SUB1        0.026
    128 H1222      35.5570   14.5260  -14.0610 H         1 SUB1        0.026
    129 H1231      36.8540   13.2840  -15.5760 H         1 SUB1       -0.008
    130 H1232      35.3380   13.0850  -16.4300 H         1 SUB1       -0.008
    131 H1241      36.9120   13.7940  -18.0430 H         1 SUB1       -0.210
    132 H1242      35.8690   15.1540  -17.7560 H         1 SUB1       -0.210
@<TRIPOS>BOND
     1    2    1 1  
     2    2    5 1  
     3    2    3 1  
     4    3    4 2  
     5    5    6 1  
     6    6    7 1  
     7    6    8 2  
     8    8   10 1  
     9   10    9 1  
    10    9    7 2  
    11    1   11 1  
    12    2   12 1  
    13    5   14 1  
    14    5   13 1  
    15    8   15 1  
    16    9   16 1  
    17   10   17 1  
    18   19   20 1  
    19   19   22 1  
    20   19   18 1  
    21   18   24 1  
    22   24   23 1  
    23   23   22 1  
    24   20   21 2  
    25   19   25 1  
    26   22   27 1  
    27   22   26 1  
    28   23   28 1  
    29   23   29 1  
    30   24   30 1  
    31   24   31 1  
    32    3   18 am 
    33   33   32 1  
    34   33   36 1  
    35   33   34 1  
    36   34   35 2  
    37   36   37 1  
    38   37   38 1  
    39   38   40 am 
    40   38   39 2  
    41   33   42 1  
    42   32   41 1  
    43   36   44 1  
    44   36   43 1  
    45   37   46 1  
    46   37   45 1  
    47   40   47 1  
    48   40   48 1  
    49   20   32 am 
    50   50   49 1  
    51   50   51 1  
    52   51   52 2  
    53   50   54 1  
    54   50   55 1  
    55   49   53 1  
    56   34   49 am 
    57   57   58 1  
    58   57   60 1  
    59   57   56 1  
    60   56   62 1  
    61   62   61 1  
    62   61   60 1  
    63   58   59 2  
    64   57   63 1  
    65   60   65 1  
    66   60   64 1  
    67   61   66 1  
    68   61   67 1  
    69   62   68 1  
    70   62   69 1  
    71   51   56 am 
    72   71   72 1  
    73   71   74 1  
    74   71   70 1  
    75   70   76 1  
    76   76   75 1  
    77   75   74 1  
    78   72   73 2  
    79   71   77 1  
    80   74   79 1  
    81   74   78 1  
    82   75   80 1  
    83   75   81 1  
    84   76   82 1  
    85   76   83 1  
    86   58   70 am 
    87   85   84 1  
    88   85   88 1  
    89   85   86 1  
    90   86   87 2  
    91   88   89 1  
    92   84   90 1  
    93   85   91 1  
    94   88   93 1  
    95   88   92 1  
    96   72   84 am 
    97   95   94 1  
    98   95   98 1  
    99   95   96 1  
   100   96   97 2  
   101   98   99 1  
   102   99  100 1  
   103  100  101 1  
   104  101  102 1  
   105   94  103 1  
   106   95  104 1  
   107   98  106 1  
   108   98  105 1  
   109   99  108 1  
   110   99  107 1  
   111  100  110 1  
   112  100  109 1  
   113  101  112 1  
   114  101  111 1  
   115  102  115 1  
   116  102  114 1  
   117  102  113 1  
   118   86   94 am 
   119    1  119 am 
   120   96  116 am 
   121  116  117 1  
   122  116  118 1  
   123  119  120 2  
   124  119  121 1  
   125  121  122 1  
   126  121  125 1  
   127  121  126 1  
   128  122  123 1  
   129  122  127 1  
   130  122  128 1  
   131  123  124 1  
   132  123  129 1  
   133  123  130 1  
   134  124   89 du 
   135  124  131 1  
   136  124  132 1  
@<TRIPOS>SUBSTRUCTURE
     1 SUB1        1 GROUP

