1vwl_ligand
  -I-interpret- 

132136  0  0  0  0  0  0  0  0999 V2000
   32.8650   14.1820  -13.2150 N   0  0  0  0  0
   32.1150   14.4180  -11.9520 C   0  0  0  0  0
   33.2130   14.8690  -11.0020 C   0  0  0  0  0
   34.2130   14.1640  -10.9210 O   0  0  0  0  0
   31.4320   13.1080  -11.3810 C   0  0  0  0  0
   30.5270   13.5520  -10.1980 C   0  0  0  0  0
   31.0300   13.8560   -9.0070 N   0  0  0  0  0
   29.1370   13.7330  -10.2150 C   0  0  0  0  0
   29.9780   14.2200   -8.3150 C   0  0  0  0  0
   28.8720   14.1480   -9.0090 N   0  0  0  0  0
   33.2060   13.2830  -13.4260 H   0  0  0  0  0
   31.3900   15.1940  -12.1230 H   0  0  0  0  0
   30.8210   12.6270  -12.1280 H   0  0  0  0  0
   32.1830   12.4190  -11.0220 H   0  0  0  0  0
   28.4410   13.5650  -11.0280 H   0  0  0  0  0
   30.0190   14.5440   -7.2800 H   0  0  0  0  0
   27.9700   14.3840   -8.6560 H   0  0  0  0  0
   33.0150   16.0000  -10.3280 N   0  0  0  0  0
   33.9450   16.5280   -9.2710 C   0  0  0  0  0
   34.3510   15.5430   -8.1420 C   0  0  0  0  0
   35.1280   15.8900   -7.2660 O   0  0  0  0  0
   33.2360   17.7980   -8.7120 C   0  0  0  0  0
   31.7490   17.5950   -9.0920 C   0  0  0  0  0
   31.8460   16.9520  -10.4880 C   0  0  0  0  0
   34.8560   16.8360   -9.7670 H   0  0  0  0  0
   33.3510   17.8570   -7.6380 H   0  0  0  0  0
   33.6560   18.6780   -9.1510 H   0  0  0  0  0
   31.2280   16.9530   -8.3900 H   0  0  0  0  0
   31.2390   18.5440   -9.1440 H   0  0  0  0  0
   30.9190   16.4330  -10.6860 H   0  0  0  0  0
   32.0510   17.6840  -11.2600 H   0  0  0  0  0
   33.8230   14.3510   -8.1620 N   0  0  0  0  0
   34.2210   13.4000   -7.0780 C   0  0  0  0  0
   35.2410   12.4280   -7.6620 C   0  0  0  0  0
   35.8770   11.7160   -6.9050 O   0  0  0  0  0
   33.0210   12.5790   -6.5760 C   0  0  0  0  0
   33.4550   11.8980   -5.2410 C   0  0  0  0  0
   32.2400   11.2030   -4.7060 C   0  0  0  0  0
   31.1580   11.7480   -4.7710 O   0  0  0  0  0
   32.3700   10.0230   -4.1800 N   0  0  0  0  0
   33.1870   14.1010   -8.8600 H   0  0  0  0  0
   34.6890   13.9450   -6.2660 H   0  0  0  0  0
   32.1590   13.2120   -6.4090 H   0  0  0  0  0
   32.7500   11.8200   -7.3000 H   0  0  0  0  0
   34.2220   11.1540   -5.4050 H   0  0  0  0  0
   33.8050   12.6150   -4.5100 H   0  0  0  0  0
   31.5970    9.5370   -3.8220 H   0  0  0  0  0
   33.2510    9.5970   -4.1380 H   0  0  0  0  0
   35.3650   12.4310   -8.9600 N   0  0  0  0  0
   36.3240   11.5150   -9.6010 C   0  0  0  0  0
   37.5950   12.2700   -9.9190 C   0  0  0  0  0
   37.6670   13.4830   -9.7270 O   0  0  0  0  0
   34.8440   13.0390   -9.5210 H   0  0  0  0  0
   36.5380   10.6820   -8.9450 H   0  0  0  0  0
   35.8850   11.1520  -10.5180 H   0  0  0  0  0
   38.5600   11.4940  -10.3990 N   0  0  0  0  0
   39.9210   12.0080  -10.7110 C   0  0  0  0  0
   39.8400   13.0960  -11.8160 C   0  0  0  0  0
   38.7760   13.3920  -12.3360 O   0  0  0  0  0
   40.7500   10.7110  -11.1170 C   0  0  0  0  0
   39.6790    9.7110  -11.6510 C   0  0  0  0  0
   38.4480   10.0110  -10.7190 C   0  0  0  0  0
   40.3180   12.4580   -9.8130 H   0  0  0  0  0
   41.4330   10.9600  -11.9170 H   0  0  0  0  0
   41.3050   10.3220  -10.2750 H   0  0  0  0  0
   39.4430    9.9120  -12.6890 H   0  0  0  0  0
   40.0070    8.6870  -11.5520 H   0  0  0  0  0
   37.5250    9.8250  -11.2520 H   0  0  0  0  0
   38.4580    9.4350   -9.8060 H   0  0  0  0  0
   40.9830   13.6490  -12.1440 N   0  0  0  0  0
   41.0970   14.5530  -13.3130 C   0  0  0  0  0
   40.6770   13.7210  -14.5380 C   0  0  0  0  0
   40.5740   12.5090  -14.4700 O   0  0  0  0  0
   42.5740   14.9830  -13.3180 C   0  0  0  0  0
   43.0030   14.7810  -11.8150 C   0  0  0  0  0
   42.2900   13.4780  -11.4370 C   0  0  0  0  0
   40.4140   15.3810  -13.1790 H   0  0  0  0  0
   43.1580   14.3540  -13.9850 H   0  0  0  0  0
   42.6780   16.0150  -13.6200 H   0  0  0  0  0
   44.0770   14.6700  -11.7250 H   0  0  0  0  0
   42.6600   15.5880  -11.1860 H   0  0  0  0  0
   42.8060   12.6170  -11.8340 H   0  0  0  0  0
   42.1540   13.3740  -10.3740 H   0  0  0  0  0
   40.4630   14.3760  -15.6360 N   0  0  0  0  0
   40.0480   13.6080  -16.8470 C   0  0  0  0  0
   41.2940   12.9800  -17.4950 C   0  0  0  0  0
   42.3430   12.9030  -16.8820 O   0  0  0  0  0
   39.3540   14.5890  -17.7930 C   0  0  0  0  0
   38.0800   15.6060  -17.0000 S   0  0  0  0  0
   40.5800   15.3440  -15.6630 H   0  0  0  0  0
   39.3720   12.8200  -16.5420 H   0  0  0  0  0
   40.1080   15.2480  -18.2080 H   0  0  0  0  0
   38.9150   14.0510  -18.6210 H   0  0  0  0  0
   41.1060   12.5540  -18.7160 N   0  0  0  0  0
   42.2020   11.9200  -19.4990 C   0  0  0  0  0
   43.3270   12.9430  -19.6290 C   0  0  0  0  0
   43.1040   14.1350  -19.6150 O   0  0  0  0  0
   41.6610   11.5360  -20.8990 C   0  0  0  0  0
   42.7830   10.9910  -21.8130 C   0  0  0  0  0
   42.2100   10.7190  -23.2290 C   0  0  0  0  0
   43.3650   10.3680  -24.1860 C   0  0  0  0  0
   42.8330   10.1080  -25.5540 N   0  3  0  0  0
   40.2260   12.6610  -19.1170 H   0  0  0  0  0
   42.5550   11.0620  -18.9420 H   0  0  0  0  0
   40.8740   10.8030  -20.8020 H   0  0  0  0  0
   41.2510   12.4290  -21.3510 H   0  0  0  0  0
   43.5680   11.7320  -21.8820 H   0  0  0  0  0
   43.1930   10.0870  -21.3880 H   0  0  0  0  0
   41.5010    9.9040  -23.2020 H   0  0  0  0  0
   41.6990   11.5980  -23.5990 H   0  0  0  0  0
   44.0630   11.1920  -24.2460 H   0  0  0  0  0
   43.8910    9.4860  -23.8500 H   0  0  0  0  0
   41.7980   10.2140  -25.5520 H   0  0  0  0  0
   43.2490   10.7870  -26.2220 H   0  0  0  0  0
   43.0820    9.1410  -25.8430 H   0  0  0  0  0
   44.5450   12.5250  -19.7620 N   0  0  0  0  0
   44.7390   11.5690  -19.7720 H   0  0  0  0  0
   45.2560   13.1880  -19.8500 H   0  0  0  0  0
   33.0430   15.1960  -14.0310 C   0  0  0  0  0
   32.6020   16.3040  -13.7610 O   0  0  0  0  0
   33.8290   14.9530  -15.3590 C   0  0  0  0  0
   35.3690   14.8180  -15.0790 C   0  0  0  0  0
   36.0580   13.8120  -16.0810 C   0  0  0  0  0
   36.6410   14.5410  -17.3100 C   0  0  0  0  0
   33.4380   14.0600  -15.8280 H   0  0  0  0  0
   33.6500   15.7860  -16.0250 H   0  0  0  0  0
   35.8040   15.7980  -15.2110 H   0  0  0  0  0
   35.5570   14.5260  -14.0610 H   0  0  0  0  0
   36.8540   13.2840  -15.5760 H   0  0  0  0  0
   35.3380   13.0850  -16.4300 H   0  0  0  0  0
   36.9120   13.7940  -18.0430 H   0  0  0  0  0
   35.8690   15.1540  -17.7560 H   0  0  0  0  0
  2  1  1  0  0  0
  2  5  1  0  0  0
  2  3  1  0  0  0
  3  4  2  0  0  0
  5  6  1  0  0  0
  6  7  1  0  0  0
  6  8  2  0  0  0
  8 10  1  0  0  0
 10  9  1  0  0  0
  9  7  2  0  0  0
  1 11  1  0  0  0
  2 12  1  0  0  0
  5 14  1  0  0  0
  5 13  1  0  0  0
  8 15  1  0  0  0
  9 16  1  0  0  0
 10 17  1  0  0  0
 19 20  1  0  0  0
 19 22  1  0  0  0
 19 18  1  0  0  0
 18 24  1  0  0  0
 24 23  1  0  0  0
 23 22  1  0  0  0
 20 21  2  0  0  0
 19 25  1  0  0  0
 22 27  1  0  0  0
 22 26  1  0  0  0
 23 28  1  0  0  0
 23 29  1  0  0  0
 24 30  1  0  0  0
 24 31  1  0  0  0
  3 18  1  0  0  0
 33 32  1  0  0  0
 33 36  1  0  0  0
 33 34  1  0  0  0
 34 35  2  0  0  0
 36 37  1  0  0  0
 37 38  1  0  0  0
 38 40  1  0  0  0
 38 39  2  0  0  0
 33 42  1  0  0  0
 32 41  1  0  0  0
 36 44  1  0  0  0
 36 43  1  0  0  0
 37 46  1  0  0  0
 37 45  1  0  0  0
 40 47  1  0  0  0
 40 48  1  0  0  0
 20 32  1  0  0  0
 50 49  1  0  0  0
 50 51  1  0  0  0
 51 52  2  0  0  0
 50 54  1  0  0  0
 50 55  1  0  0  0
 49 53  1  0  0  0
 34 49  1  0  0  0
 57 58  1  0  0  0
 57 60  1  0  0  0
 57 56  1  0  0  0
 56 62  1  0  0  0
 62 61  1  0  0  0
 61 60  1  0  0  0
 58 59  2  0  0  0
 57 63  1  0  0  0
 60 65  1  0  0  0
 60 64  1  0  0  0
 61 66  1  0  0  0
 61 67  1  0  0  0
 62 68  1  0  0  0
 62 69  1  0  0  0
 51 56  1  0  0  0
 71 72  1  0  0  0
 71 74  1  0  0  0
 71 70  1  0  0  0
 70 76  1  0  0  0
 76 75  1  0  0  0
 75 74  1  0  0  0
 72 73  2  0  0  0
 71 77  1  0  0  0
 74 79  1  0  0  0
 74 78  1  0  0  0
 75 80  1  0  0  0
 75 81  1  0  0  0
 76 82  1  0  0  0
 76 83  1  0  0  0
 58 70  1  0  0  0
 85 84  1  0  0  0
 85 88  1  0  0  0
 85 86  1  0  0  0
 86 87  2  0  0  0
 88 89  1  0  0  0
 84 90  1  0  0  0
 85 91  1  0  0  0
 88 93  1  0  0  0
 88 92  1  0  0  0
 72 84  1  0  0  0
 95 94  1  0  0  0
 95 98  1  0  0  0
 95 96  1  0  0  0
 96 97  2  0  0  0
 98 99  1  0  0  0
 99100  1  0  0  0
100101  1  0  0  0
101102  1  0  0  0
 94103  1  0  0  0
 95104  1  0  0  0
 98106  1  0  0  0
 98105  1  0  0  0
 99108  1  0  0  0
 99107  1  0  0  0
100110  1  0  0  0
100109  1  0  0  0
101112  1  0  0  0
101111  1  0  0  0
102115  1  0  0  0
102114  1  0  0  0
102113  1  0  0  0
 86 94  1  0  0  0
  1119  1  0  0  0
 96116  1  0  0  0
116117  1  0  0  0
116118  1  0  0  0
119120  2  0  0  0
119121  1  0  0  0
121122  1  0  0  0
121125  1  0  0  0
121126  1  0  0  0
122123  1  0  0  0
122127  1  0  0  0
122128  1  0  0  0
123124  1  0  0  0
123129  1  0  0  0
123130  1  0  0  0
124 89  1  0  0  0
124131  1  0  0  0
124132  1  0  0  0
M  END
$$$$
