### 
### Created by X-TOOL on Mon Oct 24 22:55:37 2005
### 

@<TRIPOS>MOLECULE
1bcd_ligand
   10     9     1     0     0
SMALL
GAST_HUCK


@<TRIPOS>ATOM
      1 C          -6.5640    1.6460   17.4020 C.3       1 SUB1        0.538
      2 F1         -7.6990    1.3040   16.9150 F         1 SUB1       -0.149
      3 F2         -6.5680    3.0110   17.3310 F         1 SUB1       -0.149
      4 F3         -6.3360    1.1890   18.5890 F         1 SUB1       -0.149
      5 S          -5.2870    1.1360   16.3120 S.o2      1 SUB1        0.135
      6 N          -5.1990   -0.4760   16.1990 N.am      1 SUB1       -0.258
      7 O1         -3.9940    1.5610   16.8260 O.2       1 SUB1       -0.147
      8 O2         -5.6450    1.7270   15.0180 O.2       1 SUB1       -0.147
      9 H61        -4.5116   -0.8991   15.6087 H         1 SUB1        0.163
     10 H62        -5.8320   -1.0490   16.7195 H         1 SUB1        0.163
@<TRIPOS>BOND
     1    1    5 1  
     2    1    4 1  
     3    1    3 1  
     4    1    2 1  
     5    5    8 2  
     6    5    7 2  
     7    5    6 1  
     8    6    9 1  
     9    6   10 1  
@<TRIPOS>SUBSTRUCTURE
     1 SUB1        1 GROUP

