### 
### Created by X-TOOL on Sun Jun  3 11:16:13 2007
### 

@<TRIPOS>MOLECULE
1zsf_ligand
  100   102     1     0     0
SMALL
GAST_HUCK


@<TRIPOS>ATOM
      1 O1        -21.9020   40.1520   30.4450 O.2       1 SUB1       -0.377
      2 C         -21.0870   39.3320   30.8210 C.2       1 SUB1        0.320
      3 O2        -20.9950   38.8920   32.1020 O.3       1 SUB1       -0.258
      4 CT        -22.1800   39.0160   32.9650 C.3       1 SUB1        0.090
      5 C1        -21.8430   38.3730   34.2980 C.3       1 SUB1       -0.032
      6 C2        -23.3200   38.2870   32.2650 C.3       1 SUB1       -0.032
      7 C3        -22.4510   40.5070   33.1000 C.3       1 SUB1       -0.032
      8 N         -20.0650   38.7960   30.1080 N.am      1 SUB1       -0.255
      9 CA        -19.8070   39.1060   28.7090 C.3       1 SUB1        0.084
     10 C         -20.1440   37.9280   27.7750 C.3       1 SUB1        0.119
     11 OR        -20.2140   38.4230   26.4400 O.3       1 SUB1       -0.384
     12 CB        -18.3410   39.5200   28.5370 C.3       1 SUB1        0.007
     13 CG        -18.0850   40.9850   28.8320 C.ar      1 SUB1       -0.041
     14 CD1       -19.0970   41.9200   28.7190 C.ar      1 SUB1       -0.060
     15 CD2       -16.8210   41.4090   29.2150 C.ar      1 SUB1       -0.060
     16 CE1       -18.8560   43.2570   28.9760 C.ar      1 SUB1       -0.069
     17 CE2       -16.5680   42.7460   29.4670 C.ar      1 SUB1       -0.069
     18 CZ        -17.5920   43.6710   29.3510 C.ar      1 SUB1       -0.069
     19 CM        -21.4900   37.2860   28.1590 C.3       1 SUB1       -0.002
     20 N         -21.8880   36.2290   27.2250 N.4       1 SUB1        0.250
     21 CA        -23.2940   36.2000   26.8770 C.3       1 SUB1        0.076
     22 C         -23.6240   37.1520   25.7250 C.2       1 SUB1        0.229
     23 O         -23.9780   38.3130   25.9350 O.2       1 SUB1       -0.391
     24 CB        -24.1970   36.5660   28.0640 C.3       1 SUB1        0.042
     25 CG        -25.6620   36.5500   27.6340 C.ar      1 SUB1       -0.035
     26 CD1       -26.1470   35.4760   26.9040 C.ar      1 SUB1       -0.060
     27 CD2       -26.5140   37.5930   27.9410 C.ar      1 SUB1       -0.060
     28 CE1       -27.4640   35.4350   26.4880 C.ar      1 SUB1       -0.069
     29 CE2       -27.8330   37.5610   27.5410 C.ar      1 SUB1       -0.069
     30 CZ        -28.3040   36.4880   26.8040 C.ar      1 SUB1       -0.069
     31 N         -23.6270   36.6240   24.5050 N.am      1 SUB1       -0.261
     32 CA        -23.8600   37.4790   23.3450 C.3       1 SUB1        0.133
     33 C         -24.7490   36.8140   22.3120 C.2       1 SUB1        0.204
     34 O         -24.5480   35.6740   21.9240 O.2       1 SUB1       -0.394
     35 CB        -22.5170   37.9150   22.7610 C.3       1 SUB1        0.004
     36 CG        -22.6210   38.9800   21.6810 C.3       1 SUB1        0.065
     37 CD        -22.8940   38.3370   20.3300 C.2       1 SUB1        0.346
     38 OE1       -22.8390   39.0310   19.2940 O.2       1 SUB1       -0.262
     39 OE2       -23.0460   37.0970   20.2920 O.2       1 SUB1       -0.262
     40 N         -25.7540   37.5420   21.8360 N.am      1 SUB1       -0.262
     41 CA        -26.5920   36.9600   20.7790 C.3       1 SUB1        0.140
     42 C         -26.8450   38.0000   19.6920 C.2       1 SUB1        0.201
     43 O         -27.2010   39.1410   19.9740 O.2       1 SUB1       -0.395
     44 CB        -27.9010   36.4210   21.3390 C.3       1 SUB1        0.021
     45 CG        -28.8940   37.4590   21.8350 C.ar      1 SUB1       -0.039
     46 CD1       -29.6950   38.1760   20.9680 C.ar      1 SUB1       -0.060
     47 CD2       -29.0100   37.7110   23.1950 C.ar      1 SUB1       -0.060
     48 CE1       -30.5810   39.1200   21.4310 C.ar      1 SUB1       -0.069
     49 CE2       -29.9060   38.6550   23.6670 C.ar      1 SUB1       -0.069
     50 CZ        -30.7020   39.3640   22.7900 C.ar      1 SUB1       -0.069
     51 N         -26.6320   37.5980   18.4320 N.am      1 SUB1       -0.299
     52 H         -20.9517   38.8442   34.7122 H         1 SUB1        0.026
     53 H         -22.6784   38.5056   34.9854 H         1 SUB1        0.026
     54 H         -21.6578   37.3091   34.1502 H         1 SUB1        0.026
     55 H         -24.2380   38.4151   32.8386 H         1 SUB1        0.026
     56 H         -23.4541   38.7000   31.2652 H         1 SUB1        0.026
     57 H         -23.0807   37.2261   32.1921 H         1 SUB1        0.026
     58 H         -22.5760   40.9435   32.1090 H         1 SUB1        0.026
     59 H         -23.3598   40.6585   33.6824 H         1 SUB1        0.026
     60 H         -21.6107   40.9835   33.6049 H         1 SUB1        0.026
     61 H         -19.4424   38.1390   30.5783 H         1 SUB1        0.187
     62 H         -20.4606   39.9312   28.4262 H         1 SUB1        0.061
     63 H         -19.3706   37.1650   27.8638 H         1 SUB1        0.067
     64 H         -20.4236   37.7011   25.8428 H         1 SUB1        0.210
     65 H         -18.0721   39.3447   27.4953 H         1 SUB1        0.045
     66 H         -17.7516   38.9365   29.2443 H         1 SUB1        0.045
     67 H         -20.0962   41.5996   28.4240 H         1 SUB1        0.056
     68 H         -16.0172   40.6802   29.3187 H         1 SUB1        0.056
     69 H         -19.6626   43.9842   28.8829 H         1 SUB1        0.060
     70 H         -15.5678   43.0694   29.7553 H         1 SUB1        0.060
     71 H         -17.4012   44.7246   29.5553 H         1 SUB1        0.056
     72 H         -22.2542   38.0629   28.1363 H         1 SUB1        0.084
     73 H         -21.3826   36.8407   29.1481 H         1 SUB1        0.084
     74 H         -21.6850   35.3424   27.6866 H         1 SUB1        0.204
     75 H         -21.3781   36.4004   26.3584 H         1 SUB1        0.204
     76 H         -23.4889   35.1716   26.5728 H         1 SUB1        0.112
     77 H         -23.9384   37.5649   28.4153 H         1 SUB1        0.051
     78 H         -24.0507   35.8383   28.8622 H         1 SUB1        0.051
     79 H         -25.4793   34.6514   26.6544 H         1 SUB1        0.056
     80 H         -26.1405   38.4483   28.5041 H         1 SUB1        0.056
     81 H         -27.8365   34.5838   25.9181 H         1 SUB1        0.060
     82 H         -28.5036   38.3789   27.8045 H         1 SUB1        0.060
     83 H         -29.3418   36.4726   26.4710 H         1 SUB1        0.056
     84 H         -23.4670   35.6244   24.3798 H         1 SUB1        0.189
     85 H         -24.4035   38.3669   23.6679 H         1 SUB1        0.080
     86 H         -22.0660   37.0353   22.3018 H         1 SUB1        0.033
     87 H         -21.9354   38.3422   23.5779 H         1 SUB1        0.033
     88 H         -21.6804   39.5285   21.6304 H         1 SUB1        0.049
     89 H         -23.4405   39.6559   21.9255 H         1 SUB1        0.049
     90 H         -25.9383   38.4789   22.1947 H         1 SUB1        0.189
     91 H         -26.0605   36.1149   20.3414 H         1 SUB1        0.082
     92 H         -27.6357   35.8143   22.2048 H         1 SUB1        0.047
     93 H         -28.3913   35.8973   20.5184 H         1 SUB1        0.047
     94 H         -29.6234   37.9900   19.8964 H         1 SUB1        0.056
     95 H         -28.3882   37.1591   23.8999 H         1 SUB1        0.056
     96 H         -31.1927   39.6806   20.7241 H         1 SUB1        0.060
     97 H         -29.9834   38.8396   24.7385 H         1 SUB1        0.060
     98 H         -31.4132   40.1027   23.1597 H         1 SUB1        0.056
     99 H         -26.7650   38.2503   17.6592 H         1 SUB1        0.182
    100 H         -26.3368   36.6396   18.2455 H         1 SUB1        0.182
@<TRIPOS>BOND
     1    1    2 2  
     2    2    3 1  
     3    2    8 am 
     4    3    4 1  
     5    4    5 1  
     6    4    6 1  
     7    4    7 1  
     8    8    9 1  
     9    9   10 1  
    10    9   12 1  
    11   10   11 1  
    12   10   19 1  
    13   12   13 1  
    14   13   14 ar 
    15   13   15 ar 
    16   14   16 ar 
    17   15   17 ar 
    18   16   18 ar 
    19   17   18 ar 
    20   19   20 1  
    21   20   21 1  
    22   21   22 1  
    23   21   24 1  
    24   22   23 2  
    25   22   31 am 
    26   24   25 1  
    27   25   26 ar 
    28   25   27 ar 
    29   26   28 ar 
    30   27   29 ar 
    31   28   30 ar 
    32   29   30 ar 
    33   31   32 1  
    34   32   33 1  
    35   32   35 1  
    36   33   34 2  
    37   33   40 am 
    38   35   36 1  
    39   36   37 1  
    40   37   38 2  
    41   37   39 2  
    42   40   41 1  
    43   41   42 1  
    44   41   44 1  
    45   42   43 2  
    46   42   51 am 
    47   44   45 1  
    48   45   46 ar 
    49   45   47 ar 
    50   46   48 ar 
    51   47   49 ar 
    52   48   50 ar 
    53   49   50 ar 
    54    5   52 1  
    55    5   53 1  
    56    5   54 1  
    57    6   55 1  
    58    6   56 1  
    59    6   57 1  
    60    7   58 1  
    61    7   59 1  
    62    7   60 1  
    63    8   61 1  
    64    9   62 1  
    65   10   63 1  
    66   11   64 1  
    67   12   65 1  
    68   12   66 1  
    69   14   67 1  
    70   15   68 1  
    71   16   69 1  
    72   17   70 1  
    73   18   71 1  
    74   19   72 1  
    75   19   73 1  
    76   20   74 1  
    77   20   75 1  
    78   21   76 1  
    79   24   77 1  
    80   24   78 1  
    81   26   79 1  
    82   27   80 1  
    83   28   81 1  
    84   29   82 1  
    85   30   83 1  
    86   31   84 1  
    87   32   85 1  
    88   35   86 1  
    89   35   87 1  
    90   36   88 1  
    91   36   89 1  
    92   40   90 1  
    93   41   91 1  
    94   44   92 1  
    95   44   93 1  
    96   46   94 1  
    97   47   95 1  
    98   48   96 1  
    99   49   97 1  
   100   50   98 1  
   101   51   99 1  
   102   51  100 1  
@<TRIPOS>SUBSTRUCTURE
     1 SUB1        1 GROUP

