1zsf_ligand
  -I-interpret- 

100102  0  0  0  0  0  0  0  0999 V2000
  -21.9020   40.1520   30.4450 O   0  0  0  0  0
  -21.0870   39.3320   30.8210 C   0  0  0  0  0
  -20.9950   38.8920   32.1020 O   0  0  0  0  0
  -22.1800   39.0160   32.9650 C   0  0  0  0  0
  -21.8430   38.3730   34.2980 C   0  0  0  0  0
  -23.3200   38.2870   32.2650 C   0  0  0  0  0
  -22.4510   40.5070   33.1000 C   0  0  0  0  0
  -20.0650   38.7960   30.1080 N   0  0  0  0  0
  -19.8070   39.1060   28.7090 C   0  0  0  0  0
  -20.1440   37.9280   27.7750 C   0  0  0  0  0
  -20.2140   38.4230   26.4400 O   0  0  0  0  0
  -18.3410   39.5200   28.5370 C   0  0  0  0  0
  -18.0850   40.9850   28.8320 C   0  0  0  0  0
  -19.0970   41.9200   28.7190 C   0  0  0  0  0
  -16.8210   41.4090   29.2150 C   0  0  0  0  0
  -18.8560   43.2570   28.9760 C   0  0  0  0  0
  -16.5680   42.7460   29.4670 C   0  0  0  0  0
  -17.5920   43.6710   29.3510 C   0  0  0  0  0
  -21.4900   37.2860   28.1590 C   0  0  0  0  0
  -21.8880   36.2290   27.2250 N   0  3  0  0  0
  -23.2940   36.2000   26.8770 C   0  0  0  0  0
  -23.6240   37.1520   25.7250 C   0  0  0  0  0
  -23.9780   38.3130   25.9350 O   0  0  0  0  0
  -24.1970   36.5660   28.0640 C   0  0  0  0  0
  -25.6620   36.5500   27.6340 C   0  0  0  0  0
  -26.1470   35.4760   26.9040 C   0  0  0  0  0
  -26.5140   37.5930   27.9410 C   0  0  0  0  0
  -27.4640   35.4350   26.4880 C   0  0  0  0  0
  -27.8330   37.5610   27.5410 C   0  0  0  0  0
  -28.3040   36.4880   26.8040 C   0  0  0  0  0
  -23.6270   36.6240   24.5050 N   0  0  0  0  0
  -23.8600   37.4790   23.3450 C   0  0  0  0  0
  -24.7490   36.8140   22.3120 C   0  0  0  0  0
  -24.5480   35.6740   21.9240 O   0  0  0  0  0
  -22.5170   37.9150   22.7610 C   0  0  0  0  0
  -22.6210   38.9800   21.6810 C   0  0  0  0  0
  -22.8940   38.3370   20.3300 C   0  0  0  0  0
  -22.8390   39.0310   19.2940 O   0  0  0  0  0
  -23.0460   37.0970   20.2920 O   0  5  0  0  0
  -25.7540   37.5420   21.8360 N   0  0  0  0  0
  -26.5920   36.9600   20.7790 C   0  0  0  0  0
  -26.8450   38.0000   19.6920 C   0  0  0  0  0
  -27.2010   39.1410   19.9740 O   0  0  0  0  0
  -27.9010   36.4210   21.3390 C   0  0  0  0  0
  -28.8940   37.4590   21.8350 C   0  0  0  0  0
  -29.6950   38.1760   20.9680 C   0  0  0  0  0
  -29.0100   37.7110   23.1950 C   0  0  0  0  0
  -30.5810   39.1200   21.4310 C   0  0  0  0  0
  -29.9060   38.6550   23.6670 C   0  0  0  0  0
  -30.7020   39.3640   22.7900 C   0  0  0  0  0
  -26.6320   37.5980   18.4320 N   0  0  0  0  0
  -20.9517   38.8442   34.7122 H   0  0  0  0  0
  -22.6784   38.5056   34.9854 H   0  0  0  0  0
  -21.6578   37.3091   34.1502 H   0  0  0  0  0
  -24.2380   38.4151   32.8386 H   0  0  0  0  0
  -23.4541   38.7000   31.2652 H   0  0  0  0  0
  -23.0807   37.2261   32.1921 H   0  0  0  0  0
  -22.5760   40.9435   32.1090 H   0  0  0  0  0
  -23.3598   40.6585   33.6824 H   0  0  0  0  0
  -21.6107   40.9835   33.6049 H   0  0  0  0  0
  -19.4424   38.1390   30.5783 H   0  0  0  0  0
  -20.4606   39.9312   28.4262 H   0  0  0  0  0
  -19.3706   37.1650   27.8638 H   0  0  0  0  0
  -20.4236   37.7011   25.8428 H   0  0  0  0  0
  -18.0721   39.3447   27.4953 H   0  0  0  0  0
  -17.7516   38.9365   29.2443 H   0  0  0  0  0
  -20.0962   41.5996   28.4240 H   0  0  0  0  0
  -16.0172   40.6802   29.3187 H   0  0  0  0  0
  -19.6626   43.9842   28.8829 H   0  0  0  0  0
  -15.5678   43.0694   29.7553 H   0  0  0  0  0
  -17.4012   44.7246   29.5553 H   0  0  0  0  0
  -22.2542   38.0629   28.1363 H   0  0  0  0  0
  -21.3826   36.8407   29.1481 H   0  0  0  0  0
  -21.6850   35.3424   27.6866 H   0  0  0  0  0
  -21.3781   36.4004   26.3584 H   0  0  0  0  0
  -23.4889   35.1716   26.5728 H   0  0  0  0  0
  -23.9384   37.5649   28.4153 H   0  0  0  0  0
  -24.0507   35.8383   28.8622 H   0  0  0  0  0
  -25.4793   34.6514   26.6544 H   0  0  0  0  0
  -26.1405   38.4483   28.5041 H   0  0  0  0  0
  -27.8365   34.5838   25.9181 H   0  0  0  0  0
  -28.5036   38.3789   27.8045 H   0  0  0  0  0
  -29.3418   36.4726   26.4710 H   0  0  0  0  0
  -23.4670   35.6244   24.3798 H   0  0  0  0  0
  -24.4035   38.3669   23.6679 H   0  0  0  0  0
  -22.0660   37.0353   22.3018 H   0  0  0  0  0
  -21.9354   38.3422   23.5779 H   0  0  0  0  0
  -21.6804   39.5285   21.6304 H   0  0  0  0  0
  -23.4405   39.6559   21.9255 H   0  0  0  0  0
  -25.9383   38.4789   22.1947 H   0  0  0  0  0
  -26.0605   36.1149   20.3414 H   0  0  0  0  0
  -27.6357   35.8143   22.2048 H   0  0  0  0  0
  -28.3913   35.8973   20.5184 H   0  0  0  0  0
  -29.6234   37.9900   19.8964 H   0  0  0  0  0
  -28.3882   37.1591   23.8999 H   0  0  0  0  0
  -31.1927   39.6806   20.7241 H   0  0  0  0  0
  -29.9834   38.8396   24.7385 H   0  0  0  0  0
  -31.4132   40.1027   23.1597 H   0  0  0  0  0
  -26.7650   38.2503   17.6592 H   0  0  0  0  0
  -26.3368   36.6396   18.2455 H   0  0  0  0  0
  1  2  2  0  0  0
  2  3  1  0  0  0
  2  8  1  0  0  0
  3  4  1  0  0  0
  4  5  1  0  0  0
  4  6  1  0  0  0
  4  7  1  0  0  0
  8  9  1  0  0  0
  9 10  1  0  0  0
  9 12  1  0  0  0
 10 11  1  0  0  0
 10 19  1  0  0  0
 12 13  1  0  0  0
 13 14  4  0  0  0
 13 15  4  0  0  0
 14 16  4  0  0  0
 15 17  4  0  0  0
 16 18  4  0  0  0
 17 18  4  0  0  0
 19 20  1  0  0  0
 20 21  1  0  0  0
 21 22  1  0  0  0
 21 24  1  0  0  0
 22 23  2  0  0  0
 22 31  1  0  0  0
 24 25  1  0  0  0
 25 26  4  0  0  0
 25 27  4  0  0  0
 26 28  4  0  0  0
 27 29  4  0  0  0
 28 30  4  0  0  0
 29 30  4  0  0  0
 31 32  1  0  0  0
 32 33  1  0  0  0
 32 35  1  0  0  0
 33 34  2  0  0  0
 33 40  1  0  0  0
 35 36  1  0  0  0
 36 37  1  0  0  0
 37 38  2  0  0  0
 37 39  1  0  0  0
 40 41  1  0  0  0
 41 42  1  0  0  0
 41 44  1  0  0  0
 42 43  2  0  0  0
 42 51  1  0  0  0
 44 45  1  0  0  0
 45 46  4  0  0  0
 45 47  4  0  0  0
 46 48  4  0  0  0
 47 49  4  0  0  0
 48 50  4  0  0  0
 49 50  4  0  0  0
  5 52  1  0  0  0
  5 53  1  0  0  0
  5 54  1  0  0  0
  6 55  1  0  0  0
  6 56  1  0  0  0
  6 57  1  0  0  0
  7 58  1  0  0  0
  7 59  1  0  0  0
  7 60  1  0  0  0
  8 61  1  0  0  0
  9 62  1  0  0  0
 10 63  1  0  0  0
 11 64  1  0  0  0
 12 65  1  0  0  0
 12 66  1  0  0  0
 14 67  1  0  0  0
 15 68  1  0  0  0
 16 69  1  0  0  0
 17 70  1  0  0  0
 18 71  1  0  0  0
 19 72  1  0  0  0
 19 73  1  0  0  0
 20 74  1  0  0  0
 20 75  1  0  0  0
 21 76  1  0  0  0
 24 77  1  0  0  0
 24 78  1  0  0  0
 26 79  1  0  0  0
 27 80  1  0  0  0
 28 81  1  0  0  0
 29 82  1  0  0  0
 30 83  1  0  0  0
 31 84  1  0  0  0
 32 85  1  0  0  0
 35 86  1  0  0  0
 35 87  1  0  0  0
 36 88  1  0  0  0
 36 89  1  0  0  0
 40 90  1  0  0  0
 41 91  1  0  0  0
 44 92  1  0  0  0
 44 93  1  0  0  0
 46 94  1  0  0  0
 47 95  1  0  0  0
 48 96  1  0  0  0
 49 97  1  0  0  0
 50 98  1  0  0  0
 51 99  1  0  0  0
 51100  1  0  0  0
M  END
$$$$
