1sqo_ligand
  -I-interpret- 

 34 36  0  0  0  0  0  0  0  0999 V2000
   22.8480   15.6040   33.4860 C   0  0  0  0  0
   21.5630   15.6150   32.9250 C   0  0  0  0  0
   20.6830   16.7430   33.1310 C   0  0  0  0  0
   21.1830   17.8310   33.9200 C   0  0  0  0  0
   22.4840   17.8600   34.4720 C   0  0  0  0  0
   23.3140   16.7200   34.2580 C   0  0  0  0  0
   19.3950   16.7020   32.5920 C   0  0  0  0  0
   18.5190   17.7660   32.9440 C   0  0  0  0  0
   18.9390   18.8490   33.7780 C   0  0  0  0  0
   20.2510   18.9260   34.2320 C   0  0  0  0  0
   23.0230   18.9790   35.1990 N   0  0  0  0  0
   23.5730   18.9350   36.4770 C   0  0  0  0  0
   23.5420   17.8270   37.2840 N   0  0  0  0  0
   24.0180   17.7620   38.5550 C   0  0  0  0  0
   24.6230   18.9260   39.1790 C   0  0  0  0  0
   24.5650   20.0600   38.2700 C   0  0  0  0  0
   24.1230   20.0870   37.0400 N   0  0  0  0  0
   18.1090   19.8910   34.1900 C   0  3  0  0  0
   16.8030   19.7790   34.1600 N   0  0  0  0  0
   18.5430   21.0900   34.6510 N   0  0  0  0  0
   23.4938   14.7465   33.3354 H   0  0  0  0  0
   21.2272   14.7716   32.3326 H   0  0  0  0  0
   24.3103   16.6964   34.6844 H   0  0  0  0  0
   19.0784   15.8983   31.9372 H   0  0  0  0  0
   17.5021   17.7555   32.5686 H   0  0  0  0  0
   20.5830   19.7819   34.8085 H   0  0  0  0  0
   22.2138   19.6914   35.2632 H   0  0  0  0  0
   23.9456   16.8328   39.1086 H   0  0  0  0  0
   25.0535   18.9464   40.1737 H   0  0  0  0  0
   24.9347   21.0008   38.6616 H   0  0  0  0  0
   16.2116   20.5633   34.4698 H   0  0  0  0  0
   16.3684   18.9067   33.8267 H   0  0  0  0  0
   19.5529   21.2822   34.7152 H   0  0  0  0  0
   17.8628   21.8086   34.9370 H   0  0  0  0  0
  1  2  4  0  0  0
  1  6  4  0  0  0
  2  3  4  0  0  0
  3  4  4  0  0  0
  3  7  4  0  0  0
  4  5  4  0  0  0
  4 10  4  0  0  0
  5  6  4  0  0  0
  5 11  1  0  0  0
  7  8  4  0  0  0
  8  9  4  0  0  0
  9 10  4  0  0  0
  9 18  1  0  0  0
 11 12  1  0  0  0
 12 13  4  0  0  0
 12 17  4  0  0  0
 13 14  4  0  0  0
 14 15  4  0  0  0
 15 16  4  0  0  0
 16 17  4  0  0  0
 18 19  1  0  0  0
 18 20  1  0  0  0
  1 21  1  0  0  0
  2 22  1  0  0  0
  6 23  1  0  0  0
  7 24  1  0  0  0
  8 25  1  0  0  0
 10 26  1  0  0  0
 11 27  1  0  0  0
 14 28  1  0  0  0
 15 29  1  0  0  0
 16 30  1  0  0  0
 19 31  1  0  0  0
 19 32  1  0  0  0
 20 33  1  0  0  0
 20 34  1  0  0  0
M  END
$$$$
