3pch_ligand
  -I-interpret- 

 15 15  0  0  0  0  0  0  0  0999 V2000
   16.2328   11.8055   39.2033 H   0  0  0  0  0
   15.3375    9.5254   39.3107 H   0  0  0  0  0
   13.9529    8.1739   40.2303 H   0  0  0  0  0
   12.5135   10.7376   42.3158 H   0  0  0  0  0
   14.8430   12.5980   40.6780 C   0  0  0  0  0
   15.4100   11.5770   39.8710 C   0  0  0  0  0
   14.9130   10.3000   39.9390 C   0  0  0  0  0
   13.8720    9.9890   40.8040 C   0  0  0  0  0
   13.4560    8.6890   40.8550 O   0  0  0  0  0
   13.3100   10.9840   41.6230 C   0  0  0  0  0
   13.7880   12.2920   41.5350 C   0  0  0  0  0
   15.4350   14.0050   40.5530 C   0  0  0  0  0
   16.3830   14.2430   39.7880 O   0  5  0  0  0
   14.9320   14.8710   41.2860 O   0  0  0  0  0
   13.3367   13.0732   42.1359 H   0  0  0  0  0
  6  1  1  0  0  0
  7  2  1  0  0  0
  9  3  1  0  0  0
  5 12  1  0  0  0
  5 11  4  0  0  0
  6  5  4  0  0  0
  7  6  4  0  0  0
  8  7  4  0  0  0
  8 10  4  0  0  0
  8  9  1  0  0  0
 10 11  4  0  0  0
 12 14  2  0  0  0
 12 13  1  0  0  0
 10  4  1  0  0  0
 11 15  1  0  0  0
M  END
$$$$
