### 
### Created by X-TOOL on Tue Oct 25 00:18:33 2005
### 

@<TRIPOS>MOLECULE
3pch_ligand
   15    15     1     0     0
SMALL
GAST_HUCK


@<TRIPOS>ATOM
      1 H61        16.2328   11.8055   39.2033 H         1 SUB1        0.059
      2 H71        15.3375    9.5254   39.3107 H         1 SUB1        0.057
      3 H91        13.9529    8.1739   40.2303 H         1 SUB1        0.253
      4 H101       12.5135   10.7376   42.3158 H         1 SUB1        0.057
      5 C1         14.8430   12.5980   40.6780 C.ar      1 SUB1       -0.018
      6 C2         15.4100   11.5770   39.8710 C.ar      1 SUB1       -0.060
      7 C3         14.9130   10.3000   39.9390 C.ar      1 SUB1       -0.028
      8 C4         13.8720    9.9890   40.8040 C.ar      1 SUB1        0.095
      9 O4         13.4560    8.6890   40.8550 O.3       1 SUB1       -0.328
     10 C5         13.3100   10.9840   41.6230 C.ar      1 SUB1       -0.028
     11 C6         13.7880   12.2920   41.5350 C.ar      1 SUB1       -0.060
     12 C7         15.4350   14.0050   40.5530 C.2       1 SUB1        0.055
     13 O1         16.3830   14.2430   39.7880 O.co2     1 SUB1       -0.557
     14 O2         14.9320   14.8710   41.2860 O.co2     1 SUB1       -0.557
     15 H111       13.3367   13.0732   42.1359 H         1 SUB1        0.059
@<TRIPOS>BOND
     1    6    1 1  
     2    7    2 1  
     3    9    3 1  
     4    5   12 1  
     5    5   11 ar 
     6    6    5 ar 
     7    7    6 ar 
     8    8    7 ar 
     9    8   10 ar 
    10    8    9 1  
    11   10   11 ar 
    12   12   14 2  
    13   12   13 2  
    14   10    4 1  
    15   11   15 1  
@<TRIPOS>SUBSTRUCTURE
     1 SUB1        1 GROUP

