### 
### Created by X-TOOL on Tue Oct 25 02:13:38 2005
### 

@<TRIPOS>MOLECULE
1bnq_ligand
   42    43     1     0     0
SMALL
GAST_HUCK


@<TRIPOS>ATOM
      1 H41        -4.2649    5.0081   12.0686 H         1 SUB1        0.055
      2 H42        -2.5973    5.6352   12.2982 H         1 SUB1        0.055
      3 C3         -5.4110    2.1300   15.9940 C.2       1 SUB1        0.159
      4 C9         -3.4750    5.2100   12.8070 C.3       1 SUB1        0.079
      5 C10        -3.0900    3.9100   13.5610 C.3       1 SUB1        0.018
      6 C11        -3.3570    7.4280   13.8130 C.3       1 SUB1        0.053
      7 C12        -2.1140    7.2940   14.6710 C.3       1 SUB1        0.064
      8 C14        -1.8980    9.6140   15.1440 C.3       1 SUB1        0.036
      9 C16        -1.4990    2.9730   11.8820 C.3       1 SUB1       -0.035
     10 O1A        -5.3690    0.9060   18.2470 O.2       1 SUB1       -0.150
     11 O2A        -7.3410    1.0020   17.0140 O.2       1 SUB1       -0.150
     12 N21        -5.5150   -0.4740   16.3480 N.am      1 SUB1       -0.261
     13 S1         -5.9400    0.8170   16.9460 S.o2      1 SUB1        0.074
     14 C4         -4.2770    2.2090   15.2360 C.2       1 SUB1       -0.039
     15 C5         -4.1380    3.3910   14.5620 C.2       1 SUB1        0.014
     16 C6         -5.2030    4.2360   14.8560 C.2       1 SUB1        0.161
     17 S2         -6.3670    3.5540   15.9020 S.3       1 SUB1       -0.001
     18 S7         -5.3460    5.8670   14.3380 S.o2      1 SUB1        0.073
     19 O3B        -6.3440    5.9330   13.3320 O.2       1 SUB1       -0.152
     20 O4B        -5.7570    6.7250   15.3850 O.2       1 SUB1       -0.152
     21 N8         -3.9590    6.1200   13.8370 N.am      1 SUB1       -0.227
     22 N15        -2.8090    2.9050   12.5390 N.4       1 SUB1        0.239
     23 O13        -1.3150    8.4560   14.5440 O.3       1 SUB1       -0.381
     24 C17        -1.2660    1.8440   10.8680 C.3       1 SUB1       -0.024
     25 H51        -2.1691    4.1078   14.1291 H         1 SUB1        0.098
     26 H61        -4.0414    8.1781   14.2359 H         1 SUB1        0.050
     27 H62        -3.0899    7.7136   12.7848 H         1 SUB1        0.050
     28 H71        -1.5370    6.4167   14.3432 H         1 SUB1        0.058
     29 H72        -2.4087    7.1669   15.7231 H         1 SUB1        0.058
     30 H81        -1.2267   10.4747   15.0081 H         1 SUB1        0.052
     31 H82        -2.0496    9.4334   16.2184 H         1 SUB1        0.052
     32 H83        -2.8666    9.8256   14.6675 H         1 SUB1        0.052
     33 H91        -0.7181    2.9145   12.6544 H         1 SUB1        0.081
     34 H92        -1.4225    3.9357   11.3555 H         1 SUB1        0.081
     35 H121       -5.7555   -1.3423   16.8001 H         1 SUB1        0.163
     36 H141       -3.5482    1.4022   15.1740 H         1 SUB1        0.041
     37 H221       -3.5133    2.9936   11.8233 H         1 SUB1        0.203
     38 H222       -2.8844    1.9990   12.9743 H         1 SUB1        0.203
     39 H241       -0.2694    1.9568   10.4162 H         1 SUB1        0.028
     40 H242       -2.0330    1.8938   10.0811 H         1 SUB1        0.028
     41 H243       -1.3285    0.8725   11.3801 H         1 SUB1        0.028
     42 H122       -4.9902   -0.4821   15.4968 H         1 SUB1        0.163
@<TRIPOS>BOND
     1    3   17 1  
     2    3   14 2  
     3    3   13 1  
     4   13   10 2  
     5   13   11 2  
     6   13   12 1  
     7   14   15 1  
     8   15   16 2  
     9   15    5 1  
    10    5   22 1  
    11    5    4 1  
    12    4   21 1  
    13   21    6 1  
    14   21   18 1  
    15   18   20 2  
    16   18   19 2  
    17   18   16 1  
    18   16   17 1  
    19    6    7 1  
    20    7   23 1  
    21   23    8 1  
    22   22    9 1  
    23    9   24 1  
    24    4    1 1  
    25    4    2 1  
    26    5   25 1  
    27    6   26 1  
    28    6   27 1  
    29    7   28 1  
    30    7   29 1  
    31    8   30 1  
    32    8   31 1  
    33    8   32 1  
    34    9   33 1  
    35    9   34 1  
    36   12   35 1  
    37   14   36 1  
    38   22   37 1  
    39   22   38 1  
    40   24   39 1  
    41   24   40 1  
    42   24   41 1  
    43   12   42 1  
@<TRIPOS>SUBSTRUCTURE
     1 SUB1        1 GROUP

