1bnq_ligand
  -I-interpret- 

 42 43  0  0  0  0  0  0  0  0999 V2000
   -4.2649    5.0081   12.0686 H   0  0  0  0  0
   -2.5973    5.6352   12.2982 H   0  0  0  0  0
   -5.4110    2.1300   15.9940 C   0  0  0  0  0
   -3.4750    5.2100   12.8070 C   0  0  0  0  0
   -3.0900    3.9100   13.5610 C   0  0  0  0  0
   -3.3570    7.4280   13.8130 C   0  0  0  0  0
   -2.1140    7.2940   14.6710 C   0  0  0  0  0
   -1.8980    9.6140   15.1440 C   0  0  0  0  0
   -1.4990    2.9730   11.8820 C   0  0  0  0  0
   -5.3690    0.9060   18.2470 O   0  0  0  0  0
   -7.3410    1.0020   17.0140 O   0  0  0  0  0
   -5.5150   -0.4740   16.3480 N   0  0  0  0  0
   -5.9400    0.8170   16.9460 S   0  0  0  0  0
   -4.2770    2.2090   15.2360 C   0  0  0  0  0
   -4.1380    3.3910   14.5620 C   0  0  0  0  0
   -5.2030    4.2360   14.8560 C   0  0  0  0  0
   -6.3670    3.5540   15.9020 S   0  0  0  0  0
   -5.3460    5.8670   14.3380 S   0  0  0  0  0
   -6.3440    5.9330   13.3320 O   0  0  0  0  0
   -5.7570    6.7250   15.3850 O   0  0  0  0  0
   -3.9590    6.1200   13.8370 N   0  0  0  0  0
   -2.8090    2.9050   12.5390 N   0  3  0  0  0
   -1.3150    8.4560   14.5440 O   0  0  0  0  0
   -1.2660    1.8440   10.8680 C   0  0  0  0  0
   -2.1691    4.1078   14.1291 H   0  0  0  0  0
   -4.0414    8.1781   14.2359 H   0  0  0  0  0
   -3.0899    7.7136   12.7848 H   0  0  0  0  0
   -1.5370    6.4167   14.3432 H   0  0  0  0  0
   -2.4087    7.1669   15.7231 H   0  0  0  0  0
   -1.2267   10.4747   15.0081 H   0  0  0  0  0
   -2.0496    9.4334   16.2184 H   0  0  0  0  0
   -2.8666    9.8256   14.6675 H   0  0  0  0  0
   -0.7181    2.9145   12.6544 H   0  0  0  0  0
   -1.4225    3.9357   11.3555 H   0  0  0  0  0
   -5.7555   -1.3423   16.8001 H   0  0  0  0  0
   -3.5482    1.4022   15.1740 H   0  0  0  0  0
   -3.5133    2.9936   11.8233 H   0  0  0  0  0
   -2.8844    1.9990   12.9743 H   0  0  0  0  0
   -0.2694    1.9568   10.4162 H   0  0  0  0  0
   -2.0330    1.8938   10.0811 H   0  0  0  0  0
   -1.3285    0.8725   11.3801 H   0  0  0  0  0
   -4.9902   -0.4821   15.4968 H   0  0  0  0  0
  3 17  1  0  0  0
  3 14  2  0  0  0
  3 13  1  0  0  0
 13 10  2  0  0  0
 13 11  2  0  0  0
 13 12  1  0  0  0
 14 15  1  0  0  0
 15 16  2  0  0  0
 15  5  1  0  0  0
  5 22  1  0  0  0
  5  4  1  0  0  0
  4 21  1  0  0  0
 21  6  1  0  0  0
 21 18  1  0  0  0
 18 20  2  0  0  0
 18 19  2  0  0  0
 18 16  1  0  0  0
 16 17  1  0  0  0
  6  7  1  0  0  0
  7 23  1  0  0  0
 23  8  1  0  0  0
 22  9  1  0  0  0
  9 24  1  0  0  0
  4  1  1  0  0  0
  4  2  1  0  0  0
  5 25  1  0  0  0
  6 26  1  0  0  0
  6 27  1  0  0  0
  7 28  1  0  0  0
  7 29  1  0  0  0
  8 30  1  0  0  0
  8 31  1  0  0  0
  8 32  1  0  0  0
  9 33  1  0  0  0
  9 34  1  0  0  0
 12 35  1  0  0  0
 14 36  1  0  0  0
 22 37  1  0  0  0
 22 38  1  0  0  0
 24 39  1  0  0  0
 24 40  1  0  0  0
 24 41  1  0  0  0
 12 42  1  0  0  0
M  END
$$$$
