### 
### Created by X-TOOL on Mon Oct 24 22:01:44 2005
### 

@<TRIPOS>MOLECULE
1o2g_ligand
   43    46     1     0     0
SMALL
GAST_HUCK


@<TRIPOS>ATOM
      1 C1         11.5100  -11.6470   22.5770 C.ar      1 SUB1        0.169
      2 C2         11.9960  -10.3580   22.1890 C.ar      1 SUB1       -0.022
      3 C3         12.8590  -10.2060   21.1080 C.ar      1 SUB1       -0.039
      4 C4         13.2380  -11.3410   20.4050 C.ar      1 SUB1        0.063
      5 C5         12.7680  -12.5750   20.7860 C.ar      1 SUB1       -0.023
      6 C6         11.9060  -12.7540   21.8260 C.ar      1 SUB1       -0.021
      7 C7         10.6970  -11.7620   23.7050 C.cat     1 SUB1        0.309
      8 N1          9.9910  -12.8580   23.9020 N.pl3     1 SUB1       -0.201
      9 N2         10.5960  -10.7460   24.5320 N.pl3     1 SUB1       -0.201
     10 N3         13.9860  -11.4730   19.3660 N.pl3     1 SUB1       -0.276
     11 CN4        13.1510  -13.6000   19.8200 C.2       1 SUB1       -0.058
     12 C8         13.9760  -12.7630   19.0070 C.2       1 SUB1        0.061
     13 C1'        14.8490  -13.3090   18.0820 C.ar      1 SUB1        0.038
     14 C2'        14.8170  -14.7040   17.8360 C.ar      1 SUB1       -0.059
     15 C3'        15.6500  -15.2640   16.8830 C.ar      1 SUB1       -0.071
     16 C4'        16.5440  -14.4630   16.1910 C.ar      1 SUB1       -0.061
     17 C5'        16.6460  -13.0830   16.4510 C.ar      1 SUB1        0.015
     18 C6'        15.7820  -12.5170   17.4160 C.ar      1 SUB1        0.113
     19 O6'        15.7850  -11.1630   17.6660 O.3       1 SUB1       -0.326
     20 C1''       17.6360  -12.3600   15.7350 C.ar      1 SUB1       -0.022
     21 C2''       17.3410  -11.2050   15.0030 C.ar      1 SUB1       -0.057
     22 C3''       18.3400  -10.5460   14.2720 C.ar      1 SUB1       -0.064
     23 C4''       19.6550  -11.0370   14.2590 C.ar      1 SUB1       -0.064
     24 C5''       19.9650  -12.1780   14.9970 C.ar      1 SUB1       -0.064
     25 C6''       18.9680  -12.8340   15.7260 C.ar      1 SUB1       -0.057
     26 H21        11.6380   -9.4790   22.6940 H         1 SUB1        0.058
     27 H31        13.1290   -9.2250   20.7370 H         1 SUB1        0.054
     28 H61        11.6770  -13.7670   22.1550 H         1 SUB1        0.058
     29 H81        10.0730  -13.6170   23.2550 H         1 SUB1        0.192
     30 H82         9.3650  -12.9790   24.6720 H         1 SUB1        0.192
     31 H91        11.1630   -9.9480   24.3690 H         1 SUB1        0.192
     32 H92         9.9990  -10.7430   25.3330 H         1 SUB1        0.192
     33 H101       14.4430  -10.7910   18.8650 H         1 SUB1        0.223
     34 H111       12.6020  -14.4340   19.3400 H         1 SUB1        0.029
     35 H141       14.1180  -15.3450   18.3520 H         1 SUB1        0.059
     36 H151       15.5990  -16.3230   16.6710 H         1 SUB1        0.053
     37 H161       17.1950  -14.9250   15.4630 H         1 SUB1        0.059
     38 H211       16.3400  -10.8180   15.0050 H         1 SUB1        0.060
     39 H221       18.0930   -9.6560   13.7070 H         1 SUB1        0.061
     40 H231       20.4200  -10.5260   13.6900 H         1 SUB1        0.060
     41 H241       20.9740  -12.5640   15.0000 H         1 SUB1        0.061
     42 H251       19.2360  -13.7150   16.2880 H         1 SUB1        0.060
     43 H191       15.1450  -10.9651   18.3395 H         1 SUB1        0.252
@<TRIPOS>BOND
     1    1    2 ar 
     2    1    6 ar 
     3    1    7 1  
     4    2    3 ar 
     5    2   26 1  
     6    3    4 ar 
     7    3   27 1  
     8    4    5 ar 
     9    4   10 1  
    10    5    6 ar 
    11    5   11 1  
    12    6   28 1  
    13    7    8 1  
    14    7    9 1  
    15    8   29 1  
    16    8   30 1  
    17    9   31 1  
    18    9   32 1  
    19   10   12 1  
    20   10   33 1  
    21   11   12 2  
    22   11   34 1  
    23   12   13 1  
    24   13   14 ar 
    25   13   18 ar 
    26   14   15 ar 
    27   14   35 1  
    28   15   16 ar 
    29   15   36 1  
    30   16   17 ar 
    31   16   37 1  
    32   17   18 ar 
    33   17   20 ar 
    34   18   19 1  
    35   20   21 ar 
    36   20   25 ar 
    37   21   22 ar 
    38   21   38 1  
    39   22   23 ar 
    40   22   39 1  
    41   23   24 ar 
    42   23   40 1  
    43   24   25 ar 
    44   24   41 1  
    45   25   42 1  
    46   19   43 1  
@<TRIPOS>SUBSTRUCTURE
     1 SUB1        1 GROUP

