1o2g_ligand
  -I-interpret- 

 43 46  0  0  0  0  0  0  0  0999 V2000
   11.5100  -11.6470   22.5770 C   0  0  0  0  0
   11.9960  -10.3580   22.1890 C   0  0  0  0  0
   12.8590  -10.2060   21.1080 C   0  0  0  0  0
   13.2380  -11.3410   20.4050 C   0  0  0  0  0
   12.7680  -12.5750   20.7860 C   0  0  0  0  0
   11.9060  -12.7540   21.8260 C   0  0  0  0  0
   10.6970  -11.7620   23.7050 C   0  3  0  0  0
    9.9910  -12.8580   23.9020 N   0  0  0  0  0
   10.5960  -10.7460   24.5320 N   0  0  0  0  0
   13.9860  -11.4730   19.3660 N   0  0  0  0  0
   13.1510  -13.6000   19.8200 C   0  0  0  0  0
   13.9760  -12.7630   19.0070 C   0  0  0  0  0
   14.8490  -13.3090   18.0820 C   0  0  0  0  0
   14.8170  -14.7040   17.8360 C   0  0  0  0  0
   15.6500  -15.2640   16.8830 C   0  0  0  0  0
   16.5440  -14.4630   16.1910 C   0  0  0  0  0
   16.6460  -13.0830   16.4510 C   0  0  0  0  0
   15.7820  -12.5170   17.4160 C   0  0  0  0  0
   15.7850  -11.1630   17.6660 O   0  0  0  0  0
   17.6360  -12.3600   15.7350 C   0  0  0  0  0
   17.3410  -11.2050   15.0030 C   0  0  0  0  0
   18.3400  -10.5460   14.2720 C   0  0  0  0  0
   19.6550  -11.0370   14.2590 C   0  0  0  0  0
   19.9650  -12.1780   14.9970 C   0  0  0  0  0
   18.9680  -12.8340   15.7260 C   0  0  0  0  0
   11.6380   -9.4790   22.6940 H   0  0  0  0  0
   13.1290   -9.2250   20.7370 H   0  0  0  0  0
   11.6770  -13.7670   22.1550 H   0  0  0  0  0
   10.0730  -13.6170   23.2550 H   0  0  0  0  0
    9.3650  -12.9790   24.6720 H   0  0  0  0  0
   11.1630   -9.9480   24.3690 H   0  0  0  0  0
    9.9990  -10.7430   25.3330 H   0  0  0  0  0
   14.4430  -10.7910   18.8650 H   0  0  0  0  0
   12.6020  -14.4340   19.3400 H   0  0  0  0  0
   14.1180  -15.3450   18.3520 H   0  0  0  0  0
   15.5990  -16.3230   16.6710 H   0  0  0  0  0
   17.1950  -14.9250   15.4630 H   0  0  0  0  0
   16.3400  -10.8180   15.0050 H   0  0  0  0  0
   18.0930   -9.6560   13.7070 H   0  0  0  0  0
   20.4200  -10.5260   13.6900 H   0  0  0  0  0
   20.9740  -12.5640   15.0000 H   0  0  0  0  0
   19.2360  -13.7150   16.2880 H   0  0  0  0  0
   15.1450  -10.9651   18.3395 H   0  0  0  0  0
  1  2  4  0  0  0
  1  6  4  0  0  0
  1  7  1  0  0  0
  2  3  4  0  0  0
  2 26  1  0  0  0
  3  4  4  0  0  0
  3 27  1  0  0  0
  4  5  4  0  0  0
  4 10  1  0  0  0
  5  6  4  0  0  0
  5 11  1  0  0  0
  6 28  1  0  0  0
  7  8  1  0  0  0
  7  9  1  0  0  0
  8 29  1  0  0  0
  8 30  1  0  0  0
  9 31  1  0  0  0
  9 32  1  0  0  0
 10 12  1  0  0  0
 10 33  1  0  0  0
 11 12  2  0  0  0
 11 34  1  0  0  0
 12 13  1  0  0  0
 13 14  4  0  0  0
 13 18  4  0  0  0
 14 15  4  0  0  0
 14 35  1  0  0  0
 15 16  4  0  0  0
 15 36  1  0  0  0
 16 17  4  0  0  0
 16 37  1  0  0  0
 17 18  4  0  0  0
 17 20  4  0  0  0
 18 19  1  0  0  0
 20 21  4  0  0  0
 20 25  4  0  0  0
 21 22  4  0  0  0
 21 38  1  0  0  0
 22 23  4  0  0  0
 22 39  1  0  0  0
 23 24  4  0  0  0
 23 40  1  0  0  0
 24 25  4  0  0  0
 24 41  1  0  0  0
 25 42  1  0  0  0
 19 43  1  0  0  0
M  END
$$$$
