6cpa_ligand
  -I-interpret- 

 58 59  0  0  0  0  0  0  0  0999 V2000
   46.0888   24.5392   34.5384 H   0  0  0  0  0
   43.3530   21.9810   33.0060 O   0  5  0  0  0
   44.9330   20.7080   33.7910 O   0  0  0  0  0
   44.3810   21.7620   33.7870 C   0  0  0  0  0
   45.8010   23.7200   33.8630 C   0  0  0  0  0
   45.4530   24.3240   32.6120 C   0  0  0  0  0
   44.9300   25.5720   32.5610 C   0  0  0  0  0
   44.5940   26.1140   31.3700 C   0  0  0  0  0
   44.8270   25.4430   30.2220 C   0  0  0  0  0
   45.3800   24.2100   30.2690 C   0  0  0  0  0
   45.6730   23.6490   31.4630 C   0  0  0  0  0
   44.7860   22.8600   34.6250 C   0  0  0  0  0
   45.3620   22.1520   35.7500 O   0  0  0  0  0
   44.3570   21.6130   37.0050 P   0  0  0  0  0
   43.1950   20.7680   36.4200 O   0  5  0  0  0
   43.9570   22.8250   37.8750 O   0  0  0  0  0
   45.3160   20.6070   38.0430 C   0  0  0  0  0
   46.5850   21.2440   38.6590 C   0  0  0  0  0
   45.7960   19.4980   37.2930 N   0  0  0  0  0
   45.3570   18.2410   37.4320 C   0  0  0  0  0
   44.3410   18.0080   38.0120 O   0  0  0  0  0
   46.1970   17.2370   36.8460 C   0  0  0  0  0
   45.5300   16.7620   35.5390 C   0  0  0  0  0
   46.5150   16.1430   37.6990 N   0  0  0  0  0
   47.2360   16.1680   38.8220 C   0  0  0  0  0
   47.3660   15.1310   39.4080 O   0  0  0  0  0
   47.7820   17.3100   39.2160 O   0  0  0  0  0
   48.9620   17.2330   39.9760 C   0  0  0  0  0
   49.7750   18.4090   40.1040 C   0  0  0  0  0
   50.2630   18.9960   38.9920 C   0  0  0  0  0
   51.0300   20.1000   39.0890 C   0  0  0  0  0
   51.3450   20.5950   40.3010 C   0  0  0  0  0
   50.8600   20.0080   41.4110 C   0  0  0  0  0
   50.0880   18.9060   41.3200 C   0  0  0  0  0
   46.6742   23.0794   33.6707 H   0  0  0  0  0
   44.7811   26.1356   33.4749 H   0  0  0  0  0
   44.1339   27.0949   31.3359 H   0  0  0  0  0
   44.5722   25.8901   29.2679 H   0  0  0  0  0
   45.5879   23.6726   29.3508 H   0  0  0  0  0
   46.0883   22.6483   31.4989 H   0  0  0  0  0
   43.9337   23.4809   34.9381 H   0  0  0  0  0
   44.6688   20.2587   38.8614 H   0  0  0  0  0
   47.0969   20.5036   39.2913 H   0  0  0  0  0
   46.2995   22.1131   39.2699 H   0  0  0  0  0
   47.2606   21.5679   37.8536 H   0  0  0  0  0
   46.5108   19.6690   36.6150 H   0  0  0  0  0
   47.1504   17.7197   36.5853 H   0  0  0  0  0
   46.1555   15.9895   35.0679 H   0  0  0  0  0
   45.4207   17.6143   34.8523 H   0  0  0  0  0
   44.5381   16.3434   35.7646 H   0  0  0  0  0
   46.1561   15.2508   37.4248 H   0  0  0  0  0
   49.5900   16.4526   39.5215 H   0  0  0  0  0
   48.6737   16.9260   40.9922 H   0  0  0  0  0
   50.0376   18.5786   38.0173 H   0  0  0  0  0
   51.3930   20.5890   38.1922 H   0  0  0  0  0
   51.9876   21.4641   40.3826 H   0  0  0  0  0
   51.0916   20.4240   42.3849 H   0  0  0  0  0
   49.7208   18.4220   42.2178 H   0  0  0  0  0
  4  2  1  0  0  0
 12  4  1  0  0  0
  5  6  1  0  0  0
 12  5  1  0  0  0
  6  7  4  0  0  0
  6 11  4  0  0  0
  7  8  4  0  0  0
  8  9  4  0  0  0
  9 10  4  0  0  0
 10 11  4  0  0  0
 12 13  1  0  0  0
 13 14  1  0  0  0
 14 15  1  0  0  0
 14 16  2  0  0  0
 14 17  1  0  0  0
 17 18  1  0  0  0
 17 19  1  0  0  0
 19 20  1  0  0  0
 20 21  2  0  0  0
 20 22  1  0  0  0
 22 23  1  0  0  0
 22 24  1  0  0  0
 24 25  1  0  0  0
 25 26  2  0  0  0
 25 27  1  0  0  0
 27 28  1  0  0  0
 28 29  1  0  0  0
 29 30  4  0  0  0
 29 34  4  0  0  0
 30 31  4  0  0  0
 31 32  4  0  0  0
 32 33  4  0  0  0
 33 34  4  0  0  0
  4  3  2  0  0  0
  5  1  1  0  0  0
  5 35  1  0  0  0
  7 36  1  0  0  0
  8 37  1  0  0  0
  9 38  1  0  0  0
 10 39  1  0  0  0
 11 40  1  0  0  0
 12 41  1  0  0  0
 17 42  1  0  0  0
 18 43  1  0  0  0
 18 44  1  0  0  0
 18 45  1  0  0  0
 19 46  1  0  0  0
 22 47  1  0  0  0
 23 48  1  0  0  0
 23 49  1  0  0  0
 23 50  1  0  0  0
 24 51  1  0  0  0
 28 52  1  0  0  0
 28 53  1  0  0  0
 30 54  1  0  0  0
 31 55  1  0  0  0
 32 56  1  0  0  0
 33 57  1  0  0  0
 34 58  1  0  0  0
M  END
$$$$
