### 
### Created by X-TOOL on Mon Oct 24 23:43:56 2005
### 

@<TRIPOS>MOLECULE
6cpa_ligand
   58    59     1     0     0
SMALL
GAST_HUCK


@<TRIPOS>ATOM
      1 H51        46.0888   24.5392   34.5384 H         1 SUB1        0.049
      2 O1A        43.3530   21.9810   33.0060 O.co2     1 SUB1       -0.563
      3 O1B        44.9330   20.7080   33.7910 O.co2     1 SUB1       -0.563
      4 C1         44.3810   21.7620   33.7870 C.2       1 SUB1        0.063
      5 C2A        45.8010   23.7200   33.8630 C.3       1 SUB1        0.023
      6 CP1        45.4530   24.3240   32.6120 C.ar      1 SUB1       -0.037
      7 CP2        44.9300   25.5720   32.5610 C.ar      1 SUB1       -0.060
      8 CP3        44.5940   26.1140   31.3700 C.ar      1 SUB1       -0.069
      9 CP4        44.8270   25.4430   30.2220 C.ar      1 SUB1       -0.069
     10 CP5        45.3800   24.2100   30.2690 C.ar      1 SUB1       -0.069
     11 CP6        45.6730   23.6490   31.4630 C.ar      1 SUB1       -0.060
     12 C2         44.7860   22.8600   34.6250 C.3       1 SUB1        0.125
     13 O3         45.3620   22.1520   35.7500 O.3       1 SUB1       -0.308
     14 P3         44.3570   21.6130   37.0050 P.3       1 SUB1        0.154
     15 O3A        43.1950   20.7680   36.4200 O.co2     1 SUB1       -0.543
     16 O3B        43.9570   22.8250   37.8750 O.co2     1 SUB1       -0.543
     17 C4         45.3160   20.6070   38.0430 C.3       1 SUB1        0.094
     18 C4A        46.5850   21.2440   38.6590 C.3       1 SUB1       -0.037
     19 N5         45.7960   19.4980   37.2930 N.am      1 SUB1       -0.277
     20 C6         45.3570   18.2410   37.4320 C.2       1 SUB1        0.202
     21 O6A        44.3410   18.0080   38.0120 O.2       1 SUB1       -0.394
     22 C7         46.1970   17.2370   36.8460 C.3       1 SUB1        0.130
     23 C7A        45.5300   16.7620   35.5390 C.3       1 SUB1       -0.024
     24 N8         46.5150   16.1430   37.6990 N.am      1 SUB1       -0.241
     25 C9         47.2360   16.1680   38.8220 C.2       1 SUB1        0.324
     26 O9A        47.3660   15.1310   39.4080 O.2       1 SUB1       -0.377
     27 O10        47.7820   17.3100   39.2160 O.3       1 SUB1       -0.251
     28 C11        48.9620   17.2330   39.9760 C.3       1 SUB1        0.111
     29 ACP1       49.7750   18.4090   40.1040 C.ar      1 SUB1       -0.013
     30 ACP2       50.2630   18.9960   38.9920 C.ar      1 SUB1       -0.058
     31 ACP3       51.0300   20.1000   39.0890 C.ar      1 SUB1       -0.068
     32 ACP4       51.3450   20.5950   40.3010 C.ar      1 SUB1       -0.069
     33 ACP5       50.8600   20.0080   41.4110 C.ar      1 SUB1       -0.068
     34 ACP6       50.0880   18.9060   41.3200 C.ar      1 SUB1       -0.058
     35 H52        46.6742   23.0794   33.6707 H         1 SUB1        0.049
     36 H71        44.7811   26.1356   33.4749 H         1 SUB1        0.056
     37 H81        44.1339   27.0949   31.3359 H         1 SUB1        0.060
     38 H91        44.5722   25.8901   29.2679 H         1 SUB1        0.056
     39 H101       45.5879   23.6726   29.3508 H         1 SUB1        0.060
     40 H111       46.0883   22.6483   31.4989 H         1 SUB1        0.056
     41 H121       43.9337   23.4809   34.9381 H         1 SUB1        0.089
     42 H171       44.6688   20.2587   38.8614 H         1 SUB1        0.061
     43 H181       47.0969   20.5036   39.2913 H         1 SUB1        0.025
     44 H182       46.2995   22.1131   39.2699 H         1 SUB1        0.025
     45 H183       47.2606   21.5679   37.8536 H         1 SUB1        0.025
     46 H191       46.5108   19.6690   36.6150 H         1 SUB1        0.186
     47 H221       47.1504   17.7197   36.5853 H         1 SUB1        0.080
     48 H231       46.1555   15.9895   35.0679 H         1 SUB1        0.028
     49 H232       45.4207   17.6143   34.8523 H         1 SUB1        0.028
     50 H233       44.5381   16.3434   35.7646 H         1 SUB1        0.028
     51 H241       46.1561   15.2508   37.4248 H         1 SUB1        0.190
     52 H281       49.5900   16.4526   39.5215 H         1 SUB1        0.078
     53 H282       48.6737   16.9260   40.9922 H         1 SUB1        0.078
     54 H301       50.0376   18.5786   38.0173 H         1 SUB1        0.056
     55 H311       51.3930   20.5890   38.1922 H         1 SUB1        0.060
     56 H321       51.9876   21.4641   40.3826 H         1 SUB1        0.056
     57 H331       51.0916   20.4240   42.3849 H         1 SUB1        0.060
     58 H341       49.7208   18.4220   42.2178 H         1 SUB1        0.056
@<TRIPOS>BOND
     1    4    2 2  
     2   12    4 1  
     3    5    6 1  
     4   12    5 1  
     5    6    7 ar 
     6    6   11 ar 
     7    7    8 ar 
     8    8    9 ar 
     9    9   10 ar 
    10   10   11 ar 
    11   12   13 1  
    12   13   14 1  
    13   14   15 2  
    14   14   16 2  
    15   14   17 1  
    16   17   18 1  
    17   17   19 1  
    18   19   20 am 
    19   20   21 2  
    20   20   22 1  
    21   22   23 1  
    22   22   24 1  
    23   24   25 am 
    24   25   26 2  
    25   25   27 1  
    26   27   28 1  
    27   28   29 1  
    28   29   30 ar 
    29   29   34 ar 
    30   30   31 ar 
    31   31   32 ar 
    32   32   33 ar 
    33   33   34 ar 
    34    4    3 2  
    35    5    1 1  
    36    5   35 1  
    37    7   36 1  
    38    8   37 1  
    39    9   38 1  
    40   10   39 1  
    41   11   40 1  
    42   12   41 1  
    43   17   42 1  
    44   18   43 1  
    45   18   44 1  
    46   18   45 1  
    47   19   46 1  
    48   22   47 1  
    49   23   48 1  
    50   23   49 1  
    51   23   50 1  
    52   24   51 1  
    53   28   52 1  
    54   28   53 1  
    55   30   54 1  
    56   31   55 1  
    57   32   56 1  
    58   33   57 1  
    59   34   58 1  
@<TRIPOS>SUBSTRUCTURE
     1 SUB1        1 GROUP

