1gai_ligand
  -I-interpret- 

 90 93  0  0  0  0  0  0  0  0999 V2000
   33.1700   20.6220    8.1810 C   0  0  0  0  0
   34.3700   20.4820    9.1210 C   0  0  0  0  0
   33.9980   19.6160   10.3230 C   0  0  0  0  0
   32.9010   20.2890   11.1430 C   0  0  0  0  0
   31.6300   20.5140   10.3000 C   0  0  0  0  0
   30.6120   21.3490   11.0820 C   0  0  0  0  0
   31.9480   21.1840    8.9340 C   0  0  0  0  0
   35.4530   19.8790    8.4310 O   0  0  0  0  0
   35.1440   19.4270   11.1420 O   0  0  0  0  0
   32.5940   19.4740   12.2730 O   0  0  0  0  0
   31.1270   22.6420   11.4010 O   0  0  0  0  0
   31.7060   18.2700    3.5220 C   0  0  0  0  0
   33.1790   18.6150    3.7860 C   0  0  0  0  0
   33.4940   18.4450    5.2860 C   0  0  0  0  0
   32.5730   19.3810    6.0870 C   0  0  0  0  0
   31.1270   18.9380    5.7900 C   0  0  0  0  0
   30.0660   19.7720    6.4830 C   0  0  0  0  0
   32.8760   19.3180    7.5360 N   0  3  0  0  0
   34.0020   17.7370    3.0250 O   0  0  0  0  0
   34.8640   18.7400    5.5420 O   0  0  0  0  0
   30.8630   19.0490    4.3710 O   0  0  0  0  0
   30.7030   13.6000    1.4850 C   0  0  0  0  0
   30.3340   14.9210    0.8370 C   0  0  0  0  0
   30.9970   16.0810    1.5810 C   0  0  0  0  0
   30.7060   16.0130    3.0940 C   0  0  0  0  0
   30.9680   14.6110    3.6400 C   0  0  0  0  0
   30.5130   14.4420    5.0790 C   0  0  0  0  0
   30.7780   14.9220   -0.5120 O   0  0  0  0  0
   30.4880   17.2900    1.0410 O   0  0  0  0  0
   31.5750   16.9070    3.8240 O   0  0  0  0  0
   30.2990   13.6120    2.8470 O   0  0  0  0  0
   30.9640   13.2120    5.6190 O   0  0  0  0  0
   34.8350   10.4330    0.5560 C   0  0  0  0  0
   34.1310   11.0140   -0.6720 C   0  0  0  0  0
   33.4850   12.3410   -0.2900 C   0  0  0  0  0
   32.5580   12.1440    0.9120 C   0  0  0  0  0
   33.3030   11.4710    2.0630 C   0  0  0  0  0
   32.3800   11.1360    3.2170 C   0  0  0  0  0
   35.7920   11.3290    1.0000 O   0  0  0  0  0
   35.0700   11.2220   -1.7230 O   0  0  0  0  0
   32.7480   12.8540   -1.3930 O   0  0  0  0  0
   32.0860   13.4280    1.3530 O   0  0  0  0  0
   33.8920   10.2340    1.6170 O   0  0  0  0  0
   31.3310   10.2700    2.8020 O   0  0  0  0  0
   33.4138   21.3355    7.3938 H   0  0  0  0  0
   34.6609   21.4741    9.4664 H   0  0  0  0  0
   33.6339   18.6535    9.9636 H   0  0  0  0  0
   33.2619   21.2636   11.4716 H   0  0  0  0  0
   31.2004   19.5346   10.0893 H   0  0  0  0  0
   30.3834   20.8301   12.0129 H   0  0  0  0  0
   29.7229   21.4752   10.4642 H   0  0  0  0  0
   31.0833   21.0061    8.2946 H   0  0  0  0  0
   32.1716   22.2292    9.1479 H   0  0  0  0  0
   36.2061   19.8053    9.0218 H   0  0  0  0  0
   35.8363   19.0037   10.6290 H   0  0  0  0  0
   33.3891   19.3378   12.7934 H   0  0  0  0  0
   30.4653   23.1372   11.8895 H   0  0  0  0  0
   31.4174   18.4816    2.4924 H   0  0  0  0  0
   33.3711   19.6482    3.4968 H   0  0  0  0  0
   33.3172   17.4131    5.5894 H   0  0  0  0  0
   32.7224   20.4202    5.7941 H   0  0  0  0  0
   31.0638   17.9148    6.1603 H   0  0  0  0  0
   30.2047   19.7102    7.5624 H   0  0  0  0  0
   30.1552   20.8101    6.1628 H   0  0  0  0  0
   29.0785   19.3929    6.2200 H   0  0  0  0  0
   32.0422   18.9482    7.9925 H   0  0  0  0  0
   33.7164   18.7482    7.6337 H   0  0  0  0  0
   33.8291   16.8300    3.2878 H   0  0  0  0  0
   35.0453   18.6260    6.4779 H   0  0  0  0  0
   30.1949   12.7651    1.0024 H   0  0  0  0  0
   29.2516   15.0431    0.8766 H   0  0  0  0  0
   32.0784   16.0263    1.4555 H   0  0  0  0  0
   29.6598   16.2905    3.2226 H   0  0  0  0  0
   32.0492   14.4803    3.5944 H   0  0  0  0  0
   29.4233   14.4531    5.1025 H   0  0  0  0  0
   30.9292   15.2557    5.6729 H   0  0  0  0  0
   31.7321   14.8178   -0.5338 H   0  0  0  0  0
   30.6743   17.3222    0.0997 H   0  0  0  0  0
   30.6107   12.4867    5.0987 H   0  0  0  0  0
   35.2914    9.4826    0.2795 H   0  0  0  0  0
   33.3686   10.3160   -1.0178 H   0  0  0  0  0
   34.2655   13.0529   -0.0215 H   0  0  0  0  0
   31.7237   11.5100    0.6119 H   0  0  0  0  0
   34.0635   12.1772    2.3962 H   0  0  0  0  0
   31.9404   12.0608    3.5906 H   0  0  0  0  0
   32.9596   10.6339    3.9916 H   0  0  0  0  0
   35.3690   12.1596    1.2295 H   0  0  0  0  0
   35.7486   11.8336   -1.4279 H   0  0  0  0  0
   32.3588   13.6977   -1.1517 H   0  0  0  0  0
   31.7064    9.4542    2.4627 H   0  0  0  0  0
  1  2  1  0  0  0
  1  7  1  0  0  0
 18  1  1  0  0  0
  2  3  1  0  0  0
  2  8  1  0  0  0
  3  4  1  0  0  0
  3  9  1  0  0  0
  5  4  1  0  0  0
  4 10  1  0  0  0
  5  6  1  0  0  0
  7  5  1  0  0  0
  6 11  1  0  0  0
 12 13  1  0  0  0
 12 21  1  0  0  0
 30 12  1  0  0  0
 13 14  1  0  0  0
 13 19  1  0  0  0
 14 15  1  0  0  0
 14 20  1  0  0  0
 16 15  1  0  0  0
 15 18  1  0  0  0
 16 17  1  0  0  0
 21 16  1  0  0  0
 22 23  1  0  0  0
 22 31  1  0  0  0
 42 22  1  0  0  0
 23 24  1  0  0  0
 23 28  1  0  0  0
 24 25  1  0  0  0
 24 29  1  0  0  0
 26 25  1  0  0  0
 25 30  1  0  0  0
 26 27  1  0  0  0
 31 26  1  0  0  0
 27 32  1  0  0  0
 34 33  1  0  0  0
 33 39  1  0  0  0
 33 43  1  0  0  0
 35 34  1  0  0  0
 34 40  1  0  0  0
 36 35  1  0  0  0
 35 41  1  0  0  0
 36 37  1  0  0  0
 36 42  1  0  0  0
 37 38  1  0  0  0
 37 43  1  0  0  0
 38 44  1  0  0  0
  1 45  1  0  0  0
  2 46  1  0  0  0
  3 47  1  0  0  0
  4 48  1  0  0  0
  5 49  1  0  0  0
  6 50  1  0  0  0
  6 51  1  0  0  0
  7 52  1  0  0  0
  7 53  1  0  0  0
  8 54  1  0  0  0
  9 55  1  0  0  0
 10 56  1  0  0  0
 11 57  1  0  0  0
 12 58  1  0  0  0
 13 59  1  0  0  0
 14 60  1  0  0  0
 15 61  1  0  0  0
 16 62  1  0  0  0
 17 63  1  0  0  0
 17 64  1  0  0  0
 17 65  1  0  0  0
 18 66  1  0  0  0
 18 67  1  0  0  0
 19 68  1  0  0  0
 20 69  1  0  0  0
 22 70  1  0  0  0
 23 71  1  0  0  0
 24 72  1  0  0  0
 25 73  1  0  0  0
 26 74  1  0  0  0
 27 75  1  0  0  0
 27 76  1  0  0  0
 28 77  1  0  0  0
 29 78  1  0  0  0
 32 79  1  0  0  0
 33 80  1  0  0  0
 34 81  1  0  0  0
 35 82  1  0  0  0
 36 83  1  0  0  0
 37 84  1  0  0  0
 38 85  1  0  0  0
 38 86  1  0  0  0
 39 87  1  0  0  0
 40 88  1  0  0  0
 41 89  1  0  0  0
 44 90  1  0  0  0
M  END
$$$$
