### 
### Created by X-TOOL on Sun Jun  3 11:44:42 2007
### 

@<TRIPOS>MOLECULE
1gai_ligand
   90    93     1     0     0
SMALL
GAST_HUCK


@<TRIPOS>ATOM
      1 C1A        33.1700   20.6220    8.1810 C.3       1 SUB1        0.007
      2 C2A        34.3700   20.4820    9.1210 C.3       1 SUB1        0.126
      3 C3A        33.9980   19.6160   10.3230 C.3       1 SUB1        0.112
      4 C4A        32.9010   20.2890   11.1430 C.3       1 SUB1        0.089
      5 C5A        31.6300   20.5140   10.3000 C.3       1 SUB1        0.016
      6 C6A        30.6120   21.3490   11.0820 C.3       1 SUB1        0.050
      7 C7A        31.9480   21.1840    8.9340 C.3       1 SUB1        0.000
      8 O2A        35.4530   19.8790    8.4310 O.3       1 SUB1       -0.384
      9 O3A        35.1440   19.4270   11.1420 O.3       1 SUB1       -0.386
     10 O4A        32.5940   19.4740   12.2730 O.3       1 SUB1       -0.389
     11 O6A        31.1270   22.6420   11.4010 O.3       1 SUB1       -0.395
     12 C1B        31.7060   18.2700    3.5220 C.3       1 SUB1        0.189
     13 C2B        33.1790   18.6150    3.7860 C.3       1 SUB1        0.137
     14 C3B        33.4940   18.4450    5.2860 C.3       1 SUB1        0.130
     15 C4B        32.5730   19.3810    6.0870 C.3       1 SUB1        0.033
     16 C5B        31.1270   18.9380    5.7900 C.3       1 SUB1        0.104
     17 C6B        30.0660   19.7720    6.4830 C.3       1 SUB1       -0.033
     18 N4B        32.8760   19.3180    7.5360 N.4       1 SUB1        0.237
     19 O2B        34.0020   17.7370    3.0250 O.3       1 SUB1       -0.384
     20 O3B        34.8640   18.7400    5.5420 O.3       1 SUB1       -0.383
     21 O5B        30.8630   19.0490    4.3710 O.3       1 SUB1       -0.340
     22 C1C        30.7030   13.6000    1.4850 C.3       1 SUB1        0.188
     23 C2C        30.3340   14.9210    0.8370 C.3       1 SUB1        0.134
     24 C3C        30.9970   16.0810    1.5810 C.3       1 SUB1        0.114
     25 C4C        30.7060   16.0130    3.0940 C.3       1 SUB1        0.118
     26 C5C        30.9680   14.6110    3.6400 C.3       1 SUB1        0.113
     27 C6C        30.5130   14.4420    5.0790 C.3       1 SUB1        0.073
     28 O2C        30.7780   14.9220   -0.5120 O.3       1 SUB1       -0.384
     29 O3C        30.4880   17.2900    1.0410 O.3       1 SUB1       -0.386
     30 O4C        31.5750   16.9070    3.8240 O.3       1 SUB1       -0.340
     31 O5C        30.2990   13.6120    2.8470 O.3       1 SUB1       -0.340
     32 O6C        30.9640   13.2120    5.6190 O.3       1 SUB1       -0.392
     33 C1D        34.8350   10.4330    0.5560 C.3       1 SUB1        0.185
     34 C2D        34.1310   11.0140   -0.6720 C.3       1 SUB1        0.134
     35 C3D        33.4850   12.3410   -0.2900 C.3       1 SUB1        0.114
     36 C4D        32.5580   12.1440    0.9120 C.3       1 SUB1        0.118
     37 C5D        33.3030   11.4710    2.0630 C.3       1 SUB1        0.113
     38 C6D        32.3800   11.1360    3.2170 C.3       1 SUB1        0.073
     39 O1D        35.7920   11.3290    1.0000 O.3       1 SUB1       -0.365
     40 O2D        35.0700   11.2220   -1.7230 O.3       1 SUB1       -0.384
     41 O3D        32.7480   12.8540   -1.3930 O.3       1 SUB1       -0.386
     42 O4D        32.0860   13.4280    1.3530 O.3       1 SUB1       -0.340
     43 O5D        33.8920   10.2340    1.6170 O.3       1 SUB1       -0.341
     44 O6D        31.3310   10.2700    2.8020 O.3       1 SUB1       -0.392
     45 H          33.4138   21.3355    7.3938 H         1 SUB1        0.088
     46 H          34.6609   21.4741    9.4664 H         1 SUB1        0.068
     47 H          33.6339   18.6535    9.9636 H         1 SUB1        0.065
     48 H          33.2619   21.2636   11.4716 H         1 SUB1        0.062
     49 H          31.2004   19.5346   10.0893 H         1 SUB1        0.035
     50 H          30.3834   20.8301   12.0129 H         1 SUB1        0.056
     51 H          29.7229   21.4752   10.4642 H         1 SUB1        0.056
     52 H          31.0833   21.0061    8.2946 H         1 SUB1        0.032
     53 H          32.1716   22.2292    9.1479 H         1 SUB1        0.032
     54 H          36.2061   19.8053    9.0218 H         1 SUB1        0.210
     55 H          35.8363   19.0037   10.6290 H         1 SUB1        0.210
     56 H          33.3891   19.3378   12.7934 H         1 SUB1        0.210
     57 H          30.4653   23.1372   11.8895 H         1 SUB1        0.209
     58 H          31.4174   18.4816    2.4924 H         1 SUB1        0.094
     59 H          33.3711   19.6482    3.4968 H         1 SUB1        0.067
     60 H          33.3172   17.4131    5.5894 H         1 SUB1        0.068
     61 H          32.7224   20.4202    5.7941 H         1 SUB1        0.090
     62 H          31.0638   17.9148    6.1603 H         1 SUB1        0.065
     63 H          30.2047   19.7102    7.5624 H         1 SUB1        0.026
     64 H          30.1552   20.8101    6.1628 H         1 SUB1        0.026
     65 H          29.0785   19.3929    6.2200 H         1 SUB1        0.026
     66 H          32.0422   18.9482    7.9925 H         1 SUB1        0.202
     67 H          33.7164   18.7482    7.6337 H         1 SUB1        0.202
     68 H          33.8291   16.8300    3.2878 H         1 SUB1        0.210
     69 H          35.0453   18.6260    6.4779 H         1 SUB1        0.210
     70 H          30.1949   12.7651    1.0024 H         1 SUB1        0.094
     71 H          29.2516   15.0431    0.8766 H         1 SUB1        0.067
     72 H          32.0784   16.0263    1.4555 H         1 SUB1        0.065
     73 H          29.6598   16.2905    3.2226 H         1 SUB1        0.065
     74 H          32.0492   14.4803    3.5944 H         1 SUB1        0.065
     75 H          29.4233   14.4531    5.1025 H         1 SUB1        0.058
     76 H          30.9292   15.2557    5.6729 H         1 SUB1        0.058
     77 H          31.7321   14.8178   -0.5338 H         1 SUB1        0.210
     78 H          30.6743   17.3222    0.0997 H         1 SUB1        0.210
     79 H          30.6107   12.4867    5.0987 H         1 SUB1        0.209
     80 H          35.2914    9.4826    0.2795 H         1 SUB1        0.094
     81 H          33.3686   10.3160   -1.0178 H         1 SUB1        0.067
     82 H          34.2655   13.0529   -0.0215 H         1 SUB1        0.065
     83 H          31.7237   11.5100    0.6119 H         1 SUB1        0.065
     84 H          34.0635   12.1772    2.3962 H         1 SUB1        0.065
     85 H          31.9404   12.0608    3.5906 H         1 SUB1        0.058
     86 H          32.9596   10.6339    3.9916 H         1 SUB1        0.058
     87 H          35.3690   12.1596    1.2295 H         1 SUB1        0.213
     88 H          35.7486   11.8336   -1.4279 H         1 SUB1        0.210
     89 H          32.3588   13.6977   -1.1517 H         1 SUB1        0.210
     90 H          31.7064    9.4542    2.4627 H         1 SUB1        0.209
@<TRIPOS>BOND
     1    1    2 1  
     2    1    7 1  
     3   18    1 1  
     4    2    3 1  
     5    2    8 1  
     6    3    4 1  
     7    3    9 1  
     8    5    4 1  
     9    4   10 1  
    10    5    6 1  
    11    7    5 1  
    12    6   11 1  
    13   12   13 1  
    14   12   21 1  
    15   30   12 1  
    16   13   14 1  
    17   13   19 1  
    18   14   15 1  
    19   14   20 1  
    20   16   15 1  
    21   15   18 1  
    22   16   17 1  
    23   21   16 1  
    24   22   23 1  
    25   22   31 1  
    26   42   22 1  
    27   23   24 1  
    28   23   28 1  
    29   24   25 1  
    30   24   29 1  
    31   26   25 1  
    32   25   30 1  
    33   26   27 1  
    34   31   26 1  
    35   27   32 1  
    36   34   33 1  
    37   33   39 1  
    38   33   43 1  
    39   35   34 1  
    40   34   40 1  
    41   36   35 1  
    42   35   41 1  
    43   36   37 1  
    44   36   42 1  
    45   37   38 1  
    46   37   43 1  
    47   38   44 1  
    48    1   45 1  
    49    2   46 1  
    50    3   47 1  
    51    4   48 1  
    52    5   49 1  
    53    6   50 1  
    54    6   51 1  
    55    7   52 1  
    56    7   53 1  
    57    8   54 1  
    58    9   55 1  
    59   10   56 1  
    60   11   57 1  
    61   12   58 1  
    62   13   59 1  
    63   14   60 1  
    64   15   61 1  
    65   16   62 1  
    66   17   63 1  
    67   17   64 1  
    68   17   65 1  
    69   18   66 1  
    70   18   67 1  
    71   19   68 1  
    72   20   69 1  
    73   22   70 1  
    74   23   71 1  
    75   24   72 1  
    76   25   73 1  
    77   26   74 1  
    78   27   75 1  
    79   27   76 1  
    80   28   77 1  
    81   29   78 1  
    82   32   79 1  
    83   33   80 1  
    84   34   81 1  
    85   35   82 1  
    86   36   83 1  
    87   37   84 1  
    88   38   85 1  
    89   38   86 1  
    90   39   87 1  
    91   40   88 1  
    92   41   89 1  
    93   44   90 1  
@<TRIPOS>SUBSTRUCTURE
     1 SUB1        1 GROUP

