### 
### Created by X-TOOL on Tue Oct 25 02:16:00 2005
### 

@<TRIPOS>MOLECULE
1g7v_ligand
   41    40     1     0     0
SMALL
GAST_HUCK


@<TRIPOS>ATOM
      1 P1          7.5020  101.7470   79.8450 P.3       1 SUB1        0.205
      2 O1P         6.3700  101.5580   81.0220 O.co2     1 SUB1       -0.535
      3 O2P         7.5090  100.4130   78.9330 O.co2     1 SUB1       -0.535
      4 O3P         7.1910  103.1300   78.8710 O.3       1 SUB1       -0.320
      5 O4P         8.9520  101.9100   80.5560 O.co2     1 SUB1       -0.535
      6 C6          7.1240  104.5570   79.3780 C.3       1 SUB1        0.094
      7 C5          6.5590  105.7140   78.3910 C.3       1 SUB1        0.111
      8 O1          6.7970  106.9620   79.0640 O.3       1 SUB1       -0.387
      9 C4          7.2140  105.7910   76.9190 C.3       1 SUB1        0.112
     10 O4          6.9200  104.5030   76.3320 O.3       1 SUB1       -0.387
     11 C3          6.7040  106.9460   75.8260 C.3       1 SUB1        0.111
     12 O3          7.0740  106.3710   74.5370 O.3       1 SUB1       -0.387
     13 C2          7.4580  108.3790   75.8270 C.3       1 SUB1        0.097
     14 O2          7.1800  109.1160   77.0050 O.3       1 SUB1       -0.388
     15 C1          7.1410  109.4070   74.6570 C.3       1 SUB1        0.031
     16 N1          5.7140  109.7020   74.2780 N.3       1 SUB1       -0.280
     17 C7          5.4600  110.1480   72.8380 C.3       1 SUB1        0.039
     18 C8          5.1740  109.0060   71.8210 C.2       1 SUB1        0.042
     19 O5          4.1300  108.2600   71.9520 O.co2     1 SUB1       -0.565
     20 O6          5.9590  108.8750   70.8640 O.co2     1 SUB1       -0.565
     21 C9          5.0530  110.6530   75.2690 C.3       1 SUB1        0.048
     22 P2          5.5890  112.3360   75.0920 P.3       1 SUB1        0.077
     23 O5P         4.5340  112.9810   74.0490 O.co2     1 SUB1       -0.542
     24 O6P         5.5880  113.1960   76.4670 O.co2     1 SUB1       -0.542
     25 O7P         7.0600  112.2980   74.4760 O.co2     1 SUB1       -0.542
     26 H61         8.1462  104.8467   79.6630 H         1 SUB1        0.064
     27 H62         6.4817  104.5525   80.2710 H         1 SUB1        0.064
     28 H71         5.4771  105.5591   78.2666 H         1 SUB1        0.065
     29 H81         6.3993  107.6685   78.5687 H         1 SUB1        0.210
     30 H91         8.2995  105.9184   77.0433 H         1 SUB1        0.065
     31 H101        7.1965  103.8150   76.9259 H         1 SUB1        0.210
     32 H111        5.6195  107.0989   75.9278 H         1 SUB1        0.065
     33 H121        6.6711  105.5155   74.4458 H         1 SUB1        0.210
     34 H131        8.5345  108.1561   75.7900 H         1 SUB1        0.063
     35 H141        7.3448  108.5702   77.7650 H         1 SUB1        0.210
     36 H151        7.6360  109.0217   73.7534 H         1 SUB1        0.046
     37 H152        7.5974  110.3656   74.9446 H         1 SUB1        0.046
     38 H171        6.3491  110.6950   72.4913 H         1 SUB1        0.065
     39 H172        4.5919  110.8236   72.8411 H         1 SUB1        0.065
     40 H211        5.2917  110.3161   76.2885 H         1 SUB1        0.050
     41 H212        3.9644  110.6155   75.1159 H         1 SUB1        0.050
@<TRIPOS>BOND
     1    1    5 2  
     2    1    4 1  
     3    1    3 2  
     4    1    2 2  
     5    4    6 1  
     6    6    7 1  
     7    7    9 1  
     8    7    8 1  
     9    9   11 1  
    10    9   10 1  
    11   11   13 1  
    12   11   12 1  
    13   13   15 1  
    14   13   14 1  
    15   15   16 1  
    16   16   21 1  
    17   16   17 1  
    18   17   18 1  
    19   18   20 2  
    20   18   19 2  
    21   21   22 1  
    22   22   25 2  
    23   22   24 2  
    24   22   23 2  
    25    6   26 1  
    26    6   27 1  
    27    7   28 1  
    28    8   29 1  
    29    9   30 1  
    30   10   31 1  
    31   11   32 1  
    32   12   33 1  
    33   13   34 1  
    34   14   35 1  
    35   15   36 1  
    36   15   37 1  
    37   17   38 1  
    38   17   39 1  
    39   21   40 1  
    40   21   41 1  
@<TRIPOS>SUBSTRUCTURE
     1 SUB1        1 GROUP

