### 
### Created by X-TOOL on Tue Oct 25 02:35:03 2005
### 

@<TRIPOS>MOLECULE
1byk_ligand
   48    49     1     0     0
SMALL
GAST_HUCK


@<TRIPOS>ATOM
      1 H221       27.3614  -12.2087   26.7541 H         1 SUB1        0.094
      2 H231       26.6683  -12.0505   29.6961 H         1 SUB1        0.067
      3 H241       26.6714  -14.2487   27.5504 H         1 SUB1        0.065
      4 H251       24.5921  -12.7849   29.2783 H         1 SUB1        0.065
      5 H261       25.1335  -12.7673   26.2655 H         1 SUB1        0.065
      6 H271       23.1318  -11.1671   27.8822 H         1 SUB1        0.058
      7 H272       22.7817  -12.4358   26.6596 H         1 SUB1        0.058
      8 H291       28.4465  -13.4340   29.8958 H         1 SUB1        0.210
      9 H301       27.2678  -14.9411   29.6860 H         1 SUB1        0.210
     10 H311       24.0543  -14.9293   28.6947 H         1 SUB1        0.210
     11 H331       24.2401  -10.0203   26.1952 H         1 SUB1        0.209
     12 H341       27.4079   -9.9793   25.9041 H         1 SUB1        0.094
     13 H351       28.5469  -10.1353   24.1545 H         1 SUB1        0.067
     14 H361       30.1054  -12.3992   25.5314 H         1 SUB1        0.065
     15 H371       30.8184   -9.6592   24.3485 H         1 SUB1        0.065
     16 H381       30.6676  -10.6645   27.2721 H         1 SUB1        0.065
     17 H391       32.4285   -8.8392   26.6643 H         1 SUB1        0.064
     18 H392       31.2823   -8.5090   28.0074 H         1 SUB1        0.064
     19 H401       27.8519  -12.2484   23.6087 H         1 SUB1        0.210
     20 H411       29.5739  -12.7247   23.3030 H         1 SUB1        0.210
     21 H421       32.4605  -11.2340   24.2337 H         1 SUB1        0.210
     22 C1         27.0220  -11.6140   27.6150 C.3       1 SUB1        0.191
     23 C2         27.1210  -12.5450   28.8240 C.3       1 SUB1        0.134
     24 C3         26.3150  -13.7810   28.4800 C.3       1 SUB1        0.114
     25 C4         24.9040  -13.2570   28.3350 C.3       1 SUB1        0.112
     26 C5         24.8380  -12.2340   27.1810 C.3       1 SUB1        0.113
     27 C6         23.4900  -11.6500   26.9610 C.3       1 SUB1        0.073
     28 O1         27.7520  -10.4360   27.6280 O.3       1 SUB1       -0.317
     29 O2         28.4330  -12.8560   29.1420 O.3       1 SUB1       -0.384
     30 O3         26.3650  -14.6910   29.5280 O.3       1 SUB1       -0.386
     31 O4         24.0400  -14.2710   28.0100 O.3       1 SUB1       -0.387
     32 O5         25.7040  -11.1550   27.3610 O.3       1 SUB1       -0.340
     33 O6         23.6220  -10.6900   25.9270 O.3       1 SUB1       -0.392
     34 C1P        28.3020  -10.4900   26.2910 C.3       1 SUB1        0.191
     35 C2P        28.6040  -10.9840   24.8520 C.3       1 SUB1        0.134
     36 C3P        29.9940  -11.5870   24.7980 C.3       1 SUB1        0.114
     37 C4P        30.9370  -10.4470   25.1070 C.3       1 SUB1        0.112
     38 C5P        30.5520   -9.8720   26.5180 C.3       1 SUB1        0.117
     39 C6P        31.3720   -8.6770   26.9240 C.3       1 SUB1        0.094
     40 O2P        27.6680  -11.9450   24.4900 O.3       1 SUB1       -0.384
     41 O3P        30.2220  -12.0630   23.5140 O.3       1 SUB1       -0.386
     42 O4P        32.2530  -10.8860   25.0930 O.3       1 SUB1       -0.387
     43 O5P        29.2000   -9.4380   26.4580 O.3       1 SUB1       -0.340
     44 O6P        30.8700   -7.5720   26.2240 O.3       1 SUB1       -0.320
     45 P          31.0070   -6.1480   26.8050 P.3       1 SUB1        0.205
     46 O7P        31.3530   -5.2300   25.5970 O.co2     1 SUB1       -0.535
     47 O8P        32.1440   -6.2450   27.8480 O.co2     1 SUB1       -0.535
     48 O9P        29.6210   -5.8630   27.4160 O.co2     1 SUB1       -0.535
@<TRIPOS>BOND
     1   22    1 1  
     2   23    2 1  
     3   24    3 1  
     4   25    4 1  
     5   26    5 1  
     6   27    6 1  
     7   27    7 1  
     8   29    8 1  
     9   30    9 1  
    10   31   10 1  
    11   33   11 1  
    12   34   12 1  
    13   35   13 1  
    14   36   14 1  
    15   37   15 1  
    16   38   16 1  
    17   39   17 1  
    18   39   18 1  
    19   40   19 1  
    20   41   20 1  
    21   42   21 1  
    22   22   32 1  
    23   28   22 1  
    24   22   23 1  
    25   23   29 1  
    26   23   24 1  
    27   24   30 1  
    28   24   25 1  
    29   25   31 1  
    30   26   25 1  
    31   32   26 1  
    32   26   27 1  
    33   27   33 1  
    34   34   28 1  
    35   43   34 1  
    36   34   35 1  
    37   35   40 1  
    38   36   35 1  
    39   36   41 1  
    40   37   36 1  
    41   37   42 1  
    42   38   37 1  
    43   38   43 1  
    44   38   39 1  
    45   39   44 1  
    46   44   45 1  
    47   45   48 2  
    48   45   47 2  
    49   45   46 2  
@<TRIPOS>SUBSTRUCTURE
     1 SUB1        1 GROUP

