1byk_ligand
  -I-interpret- 

 48 49  0  0  0  0  0  0  0  0999 V2000
   27.3614  -12.2087   26.7541 H   0  0  0  0  0
   26.6683  -12.0505   29.6961 H   0  0  0  0  0
   26.6714  -14.2487   27.5504 H   0  0  0  0  0
   24.5921  -12.7849   29.2783 H   0  0  0  0  0
   25.1335  -12.7673   26.2655 H   0  0  0  0  0
   23.1318  -11.1671   27.8822 H   0  0  0  0  0
   22.7817  -12.4358   26.6596 H   0  0  0  0  0
   28.4465  -13.4340   29.8958 H   0  0  0  0  0
   27.2678  -14.9411   29.6860 H   0  0  0  0  0
   24.0543  -14.9293   28.6947 H   0  0  0  0  0
   24.2401  -10.0203   26.1952 H   0  0  0  0  0
   27.4079   -9.9793   25.9041 H   0  0  0  0  0
   28.5469  -10.1353   24.1545 H   0  0  0  0  0
   30.1054  -12.3992   25.5314 H   0  0  0  0  0
   30.8184   -9.6592   24.3485 H   0  0  0  0  0
   30.6676  -10.6645   27.2721 H   0  0  0  0  0
   32.4285   -8.8392   26.6643 H   0  0  0  0  0
   31.2823   -8.5090   28.0074 H   0  0  0  0  0
   27.8519  -12.2484   23.6087 H   0  0  0  0  0
   29.5739  -12.7247   23.3030 H   0  0  0  0  0
   32.4605  -11.2340   24.2337 H   0  0  0  0  0
   27.0220  -11.6140   27.6150 C   0  0  0  0  0
   27.1210  -12.5450   28.8240 C   0  0  0  0  0
   26.3150  -13.7810   28.4800 C   0  0  0  0  0
   24.9040  -13.2570   28.3350 C   0  0  0  0  0
   24.8380  -12.2340   27.1810 C   0  0  0  0  0
   23.4900  -11.6500   26.9610 C   0  0  0  0  0
   27.7520  -10.4360   27.6280 O   0  0  0  0  0
   28.4330  -12.8560   29.1420 O   0  0  0  0  0
   26.3650  -14.6910   29.5280 O   0  0  0  0  0
   24.0400  -14.2710   28.0100 O   0  0  0  0  0
   25.7040  -11.1550   27.3610 O   0  0  0  0  0
   23.6220  -10.6900   25.9270 O   0  0  0  0  0
   28.3020  -10.4900   26.2910 C   0  0  0  0  0
   28.6040  -10.9840   24.8520 C   0  0  0  0  0
   29.9940  -11.5870   24.7980 C   0  0  0  0  0
   30.9370  -10.4470   25.1070 C   0  0  0  0  0
   30.5520   -9.8720   26.5180 C   0  0  0  0  0
   31.3720   -8.6770   26.9240 C   0  0  0  0  0
   27.6680  -11.9450   24.4900 O   0  0  0  0  0
   30.2220  -12.0630   23.5140 O   0  0  0  0  0
   32.2530  -10.8860   25.0930 O   0  0  0  0  0
   29.2000   -9.4380   26.4580 O   0  0  0  0  0
   30.8700   -7.5720   26.2240 O   0  0  0  0  0
   31.0070   -6.1480   26.8050 P   0  0  0  0  0
   31.3530   -5.2300   25.5970 O   0  5  0  0  0
   32.1440   -6.2450   27.8480 O   0  5  0  0  0
   29.6210   -5.8630   27.4160 O   0  0  0  0  0
 22  1  1  0  0  0
 23  2  1  0  0  0
 24  3  1  0  0  0
 25  4  1  0  0  0
 26  5  1  0  0  0
 27  6  1  0  0  0
 27  7  1  0  0  0
 29  8  1  0  0  0
 30  9  1  0  0  0
 31 10  1  0  0  0
 33 11  1  0  0  0
 34 12  1  0  0  0
 35 13  1  0  0  0
 36 14  1  0  0  0
 37 15  1  0  0  0
 38 16  1  0  0  0
 39 17  1  0  0  0
 39 18  1  0  0  0
 40 19  1  0  0  0
 41 20  1  0  0  0
 42 21  1  0  0  0
 22 32  1  0  0  0
 28 22  1  0  0  0
 22 23  1  0  0  0
 23 29  1  0  0  0
 23 24  1  0  0  0
 24 30  1  0  0  0
 24 25  1  0  0  0
 25 31  1  0  0  0
 26 25  1  0  0  0
 32 26  1  0  0  0
 26 27  1  0  0  0
 27 33  1  0  0  0
 34 28  1  0  0  0
 43 34  1  0  0  0
 34 35  1  0  0  0
 35 40  1  0  0  0
 36 35  1  0  0  0
 36 41  1  0  0  0
 37 36  1  0  0  0
 37 42  1  0  0  0
 38 37  1  0  0  0
 38 43  1  0  0  0
 38 39  1  0  0  0
 39 44  1  0  0  0
 44 45  1  0  0  0
 45 48  2  0  0  0
 45 47  1  0  0  0
 45 46  1  0  0  0
M  END
$$$$
