### 
### Created by X-TOOL on Tue Oct 25 01:45:37 2005
### 

@<TRIPOS>MOLECULE
4tln_ligand
   25    24     1     0     0
SMALL
GAST_HUCK


@<TRIPOS>ATOM
      1 H61        52.3722   15.8664   -3.7070 H         1 SUB1        0.201
      2 H62        53.7664   16.9393   -3.8314 H         1 SUB1        0.201
      3 H71        51.0130   17.3295   -5.0930 H         1 SUB1        0.110
      4 H101       51.0080   18.5380   -2.9415 H         1 SUB1        0.035
      5 H102       52.4263   19.4852   -3.5054 H         1 SUB1        0.035
      6 N          52.9070   16.5460   -4.3540 N.4       1 SUB1        0.238
      7 CA         51.9980   17.6810   -4.7520 C.3       1 SUB1        0.067
      8 C          52.5700   18.7580   -5.6730 C.2       1 SUB1        0.247
      9 O          53.6330   18.7010   -6.3740 O.2       1 SUB1       -0.391
     10 CB         52.0280   18.4720   -3.3480 C.3       1 SUB1        0.010
     11 CG         52.9200   17.7210   -2.3660 C.3       1 SUB1       -0.039
     12 CD1        54.2770   17.6690   -3.1420 C.3       1 SUB1       -0.062
     13 CD2        53.0310   18.2540   -0.9470 C.3       1 SUB1       -0.062
     14 N2         51.8440   19.8300   -5.6540 N.am      1 SUB1       -0.160
     15 ON2        52.4760   20.7250   -6.4920 O.3       1 SUB1       -0.272
     16 H111       52.5294   16.6974   -2.2677 H         1 SUB1        0.030
     17 H121       55.0271   17.1421   -2.5340 H         1 SUB1        0.023
     18 H122       54.6231   18.6933   -3.3445 H         1 SUB1        0.023
     19 H123       54.1353   17.1350   -4.0932 H         1 SUB1        0.023
     20 H131       52.0363   18.2562   -0.4773 H         1 SUB1        0.023
     21 H132       53.4276   19.2797   -0.9705 H         1 SUB1        0.023
     22 H133       53.7093   17.6118   -0.3661 H         1 SUB1        0.023
     23 H141       51.0000   19.9783   -5.1386 H         1 SUB1        0.222
     24 H151       53.3526   20.8955   -6.1681 H         1 SUB1        0.249
     25 H63        53.2118   16.0543   -5.1795 H         1 SUB1        0.201
@<TRIPOS>BOND
     1    6    7 1  
     2    7    8 1  
     3    7   10 1  
     4    8    9 2  
     5    8   14 am 
     6    6    1 1  
     7   10   11 1  
     8   11   12 1  
     9   11   13 1  
    10   14   15 1  
    11    6    2 1  
    12    7    3 1  
    13   10    4 1  
    14   10    5 1  
    15   11   16 1  
    16   12   17 1  
    17   12   18 1  
    18   12   19 1  
    19   13   20 1  
    20   13   21 1  
    21   13   22 1  
    22   14   23 1  
    23   15   24 1  
    24    6   25 1  
@<TRIPOS>SUBSTRUCTURE
     1 SUB1        1 GROUP

