4tln_ligand
  -I-interpret- 

 25 24  0  0  0  0  0  0  0  0999 V2000
   52.3722   15.8664   -3.7070 H   0  0  0  0  0
   53.7664   16.9393   -3.8314 H   0  0  0  0  0
   51.0130   17.3295   -5.0930 H   0  0  0  0  0
   51.0080   18.5380   -2.9415 H   0  0  0  0  0
   52.4263   19.4852   -3.5054 H   0  0  0  0  0
   52.9070   16.5460   -4.3540 N   0  3  0  0  0
   51.9980   17.6810   -4.7520 C   0  0  0  0  0
   52.5700   18.7580   -5.6730 C   0  0  0  0  0
   53.6330   18.7010   -6.3740 O   0  0  0  0  0
   52.0280   18.4720   -3.3480 C   0  0  0  0  0
   52.9200   17.7210   -2.3660 C   0  0  0  0  0
   54.2770   17.6690   -3.1420 C   0  0  0  0  0
   53.0310   18.2540   -0.9470 C   0  0  0  0  0
   51.8440   19.8300   -5.6540 N   0  0  0  0  0
   52.4760   20.7250   -6.4920 O   0  0  0  0  0
   52.5294   16.6974   -2.2677 H   0  0  0  0  0
   55.0271   17.1421   -2.5340 H   0  0  0  0  0
   54.6231   18.6933   -3.3445 H   0  0  0  0  0
   54.1353   17.1350   -4.0932 H   0  0  0  0  0
   52.0363   18.2562   -0.4773 H   0  0  0  0  0
   53.4276   19.2797   -0.9705 H   0  0  0  0  0
   53.7093   17.6118   -0.3661 H   0  0  0  0  0
   51.0000   19.9783   -5.1386 H   0  0  0  0  0
   53.3526   20.8955   -6.1681 H   0  0  0  0  0
   53.2118   16.0543   -5.1795 H   0  0  0  0  0
  6  7  1  0  0  0
  7  8  1  0  0  0
  7 10  1  0  0  0
  8  9  2  0  0  0
  8 14  1  0  0  0
  6  1  1  0  0  0
 10 11  1  0  0  0
 11 12  1  0  0  0
 11 13  1  0  0  0
 14 15  1  0  0  0
  6  2  1  0  0  0
  7  3  1  0  0  0
 10  4  1  0  0  0
 10  5  1  0  0  0
 11 16  1  0  0  0
 12 17  1  0  0  0
 12 18  1  0  0  0
 12 19  1  0  0  0
 13 20  1  0  0  0
 13 21  1  0  0  0
 13 22  1  0  0  0
 14 23  1  0  0  0
 15 24  1  0  0  0
  6 25  1  0  0  0
M  END
$$$$
