### 
### Created by X-TOOL on Tue Oct 25 01:47:32 2005
### 

@<TRIPOS>MOLECULE
1gnn_ligand
   95    95     1     0     0
SMALL
GAST_HUCK


@<TRIPOS>ATOM
      1 C1         -9.7870   15.5500   31.9810 C.3       1 SUB1        0.026
      2 C2         -9.8910   15.3150   30.4740 C.2       1 SUB1        0.173
      3 C3        -10.8230   16.2040   28.3790 C.3       1 SUB1        0.068
      4 C4        -12.3130   16.0210   28.0540 C.3       1 SUB1       -0.025
      5 C5        -12.7500   14.6950   28.6840 C.3       1 SUB1       -0.039
      6 C6        -14.2430   14.7380   29.0180 C.3       1 SUB1       -0.050
      7 C7        -14.6920   13.3870   29.5710 C.3       1 SUB1       -0.053
      8 C8        -14.4220   12.2690   28.5580 C.3       1 SUB1       -0.053
      9 C9        -12.9350   12.2180   28.1880 C.3       1 SUB1       -0.053
     10 C10       -12.4610   13.5790   27.6630 C.3       1 SUB1       -0.050
     11 C11       -10.3670   17.5300   27.7370 C.3       1 SUB1        0.080
     12 C12        -8.8930   17.8210   27.9520 C.3       1 SUB1       -0.005
     13 C13        -7.9830   18.3160   26.8370 C.3       1 SUB1        0.054
     14 C14        -6.5880   18.5940   27.3800 C.3       1 SUB1       -0.027
     15 C15        -5.8750   17.3260   27.8570 C.3       1 SUB1       -0.060
     16 C16        -5.6610   19.2260   26.3410 C.3       1 SUB1       -0.060
     17 C17        -7.8460   17.2620   25.7430 C.2       1 SUB1        0.182
     18 C18        -7.6690   16.9410   23.3400 C.3       1 SUB1        0.133
     19 C19        -9.0130   16.7130   22.6530 C.3       1 SUB1        0.004
     20 C20        -8.9090   15.7900   21.4390 C.3       1 SUB1        0.041
     21 C21        -8.7030   16.5570   20.1350 C.2       1 SUB1        0.174
     22 C22        -6.7030   17.6570   22.4020 C.2       1 SUB1        0.204
     23 C23        -4.5390   17.4790   21.2780 C.3       1 SUB1        0.131
     24 C24        -4.5400   16.7320   19.9440 C.2       1 SUB1        0.199
     25 C25        -3.1860   17.2780   21.9600 C.3       1 SUB1       -0.011
     26 C26        -2.1630   18.3500   21.5840 C.3       1 SUB1       -0.030
     27 C27        -1.0180   18.4580   22.5920 C.3       1 SUB1        0.051
     28 C28         0.0430   20.3510   23.7960 C.cat     1 SUB1        0.387
     29 N1        -10.6160   16.2220   29.8360 N.am      1 SUB1       -0.282
     30 N2         -7.8420   17.7610   24.5340 N.am      1 SUB1       -0.265
     31 N3         -7.9470   16.0480   19.1810 N.am      1 SUB1       -0.301
     32 N4         -5.6110   16.9720   22.1400 N.am      1 SUB1       -0.264
     33 N5         -5.2640   17.1750   18.9090 N.am      1 SUB1       -0.299
     34 N6         -1.0510   19.7070   23.3660 N.pl3     1 SUB1       -0.170
     35 N7          1.2260   19.7230   23.8750 N.pl3     1 SUB1       -0.183
     36 N8          0.0580   21.6360   24.1740 N.pl3     1 SUB1       -0.183
     37 O1         -9.3170   14.3540   29.9400 O.2       1 SUB1       -0.397
     38 O2        -11.1130   18.6060   28.2800 O.3       1 SUB1       -0.389
     39 O3         -7.7470   16.0580   26.0180 O.2       1 SUB1       -0.397
     40 O4         -9.2440   17.6510   19.9770 O.2       1 SUB1       -0.397
     41 O5         -6.9620   18.7880   21.9640 O.2       1 SUB1       -0.394
     42 O6         -3.8700   15.7010   19.7910 O.2       1 SUB1       -0.395
     43 H11        -9.1723   14.7582   32.4340 H         1 SUB1        0.047
     44 H12       -10.7932   15.5323   32.4252 H         1 SUB1        0.047
     45 H13        -9.3207   16.5285   32.1682 H         1 SUB1        0.047
     46 H31       -10.2468   15.3719   27.9482 H         1 SUB1        0.058
     47 H41       -12.4606   15.9881   26.9645 H         1 SUB1        0.029
     48 H42       -12.8968   16.8511   28.4783 H         1 SUB1        0.029
     49 H51       -12.1774   14.5133   29.6054 H         1 SUB1        0.030
     50 H61       -14.8142   14.9667   28.1061 H         1 SUB1        0.027
     51 H62       -14.4259   15.5190   29.7707 H         1 SUB1        0.027
     52 H71       -15.7699   13.4256   29.7870 H         1 SUB1        0.026
     53 H72       -14.1395   13.1749   30.4983 H         1 SUB1        0.026
     54 H81       -15.0136   12.4548   27.6494 H         1 SUB1        0.026
     55 H82       -14.7177   11.3049   28.9974 H         1 SUB1        0.026
     56 H91       -12.7826   11.4571   27.4084 H         1 SUB1        0.026
     57 H92       -12.3496   11.9512   29.0803 H         1 SUB1        0.026
     58 H101      -11.3781   13.5348   27.4752 H         1 SUB1        0.027
     59 H102      -12.9871   13.8054   26.7239 H         1 SUB1        0.027
     60 H111      -10.5560   17.4697   26.6550 H         1 SUB1        0.062
     61 H121       -8.4471   16.8835   28.3158 H         1 SUB1        0.032
     62 H122       -8.8450   18.5818   28.7450 H         1 SUB1        0.032
     63 H131       -8.4058   19.2377   26.4108 H         1 SUB1        0.054
     64 H141       -6.6944   19.2846   28.2295 H         1 SUB1        0.032
     65 H151       -4.8764   17.5877   28.2368 H         1 SUB1        0.023
     66 H152       -5.7750   16.6233   27.0166 H         1 SUB1        0.023
     67 H153       -6.4612   16.8559   28.6603 H         1 SUB1        0.023
     68 H161       -6.1181   20.1491   25.9551 H         1 SUB1        0.023
     69 H162       -5.5041   18.5202   25.5120 H         1 SUB1        0.023
     70 H163       -4.6940   19.4634   26.8085 H         1 SUB1        0.023
     71 H181       -7.2446   15.9671   23.6251 H         1 SUB1        0.080
     72 H191       -9.4081   17.6849   22.3226 H         1 SUB1        0.034
     73 H192       -9.7065   16.2626   23.3784 H         1 SUB1        0.034
     74 H201       -9.8371   15.2047   21.3607 H         1 SUB1        0.050
     75 H202       -8.0575   15.1093   21.5857 H         1 SUB1        0.050
     76 H231       -4.6998   18.5517   21.0949 H         1 SUB1        0.080
     77 H251       -2.7880   16.2954   21.6667 H         1 SUB1        0.031
     78 H252       -3.3354   17.3028   23.0495 H         1 SUB1        0.031
     79 H261       -2.6761   19.3215   21.5300 H         1 SUB1        0.028
     80 H262       -1.7412   18.1027   20.5986 H         1 SUB1        0.028
     81 H271       -0.0643   18.4090   22.0460 H         1 SUB1        0.050
     82 H272       -1.0846   17.6108   23.2905 H         1 SUB1        0.050
     83 H291      -11.0424   16.9527   30.3692 H         1 SUB1        0.185
     84 H301       -7.9628   18.7475   24.4233 H         1 SUB1        0.188
     85 H311       -7.8128   16.5513   18.3273 H         1 SUB1        0.181
     86 H312       -7.5082   15.1589   19.3116 H         1 SUB1        0.181
     87 H321       -5.5074   16.0645   22.5472 H         1 SUB1        0.188
     88 H331       -5.2549   16.6760   18.0424 H         1 SUB1        0.182
     89 H332       -5.8140   18.0050   19.0023 H         1 SUB1        0.182
     90 H341       -1.9707   20.1120   23.5917 H         1 SUB1        0.198
     91 H351        2.0578   20.2314   24.2074 H         1 SUB1        0.194
     92 H352        1.3024   18.7324   23.6032 H         1 SUB1        0.194
     93 H361        0.9362   22.0683   24.4945 H         1 SUB1        0.194
     94 H362       -0.8087   22.1918   24.1442 H         1 SUB1        0.194
     95 H381      -12.0404   18.4419   28.1549 H         1 SUB1        0.210
@<TRIPOS>BOND
     1    2    1 1  
     2   29    2 am 
     3    2   37 2  
     4    3    4 1  
     5   11    3 1  
     6    3   29 1  
     7    4    5 1  
     8    5    6 1  
     9    5   10 1  
    10    6    7 1  
    11    7    8 1  
    12    9    8 1  
    13   10    9 1  
    14   12   11 1  
    15   11   38 1  
    16   13   12 1  
    17   13   14 1  
    18   17   13 1  
    19   14   15 1  
    20   14   16 1  
    21   30   17 am 
    22   17   39 2  
    23   18   19 1  
    24   22   18 1  
    25   18   30 1  
    26   19   20 1  
    27   20   21 1  
    28   21   31 am 
    29   21   40 2  
    30   32   22 am 
    31   22   41 2  
    32   23   24 1  
    33   25   23 1  
    34   23   32 1  
    35   24   33 am 
    36   24   42 2  
    37   26   25 1  
    38   27   26 1  
    39   34   27 1  
    40   28   36 1  
    41   28   35 1  
    42   34   28 1  
    43    1   43 1  
    44    1   44 1  
    45    1   45 1  
    46    3   46 1  
    47    4   47 1  
    48    4   48 1  
    49    5   49 1  
    50    6   50 1  
    51    6   51 1  
    52    7   52 1  
    53    7   53 1  
    54    8   54 1  
    55    8   55 1  
    56    9   56 1  
    57    9   57 1  
    58   10   58 1  
    59   10   59 1  
    60   11   60 1  
    61   12   61 1  
    62   12   62 1  
    63   13   63 1  
    64   14   64 1  
    65   15   65 1  
    66   15   66 1  
    67   15   67 1  
    68   16   68 1  
    69   16   69 1  
    70   16   70 1  
    71   18   71 1  
    72   19   72 1  
    73   19   73 1  
    74   20   74 1  
    75   20   75 1  
    76   23   76 1  
    77   25   77 1  
    78   25   78 1  
    79   26   79 1  
    80   26   80 1  
    81   27   81 1  
    82   27   82 1  
    83   29   83 1  
    84   30   84 1  
    85   31   85 1  
    86   31   86 1  
    87   32   87 1  
    88   33   88 1  
    89   33   89 1  
    90   34   90 1  
    91   35   91 1  
    92   35   92 1  
    93   36   93 1  
    94   36   94 1  
    95   38   95 1  
@<TRIPOS>SUBSTRUCTURE
     1 SUB1        1 GROUP

