### 
### Created by X-TOOL on Tue Oct 25 00:09:11 2005
### 

@<TRIPOS>MOLECULE
1nhu_ligand
   50    52     1     0     0
SMALL
GAST_HUCK


@<TRIPOS>ATOM
      1 N1          7.3180   33.2600   77.8600 N.am      1 SUB1       -0.242
      2 C2          7.1460   32.8210   76.3930 C.3       1 SUB1        0.095
      3 C3          5.6810   32.9860   75.8330 C.2       1 SUB1        0.055
      4 O4          5.4030   32.5250   74.6950 O.co2     1 SUB1       -0.564
      5 O5          4.8390   33.5880   76.5270 O.co2     1 SUB1       -0.564
      6 C6          7.2500   34.6300   78.2460 C.2       1 SUB1        0.213
      7 O7          6.8810   34.9810   79.3550 O.2       1 SUB1       -0.384
      8 C8          7.6660   35.7540   77.3020 C.ar      1 SUB1        0.064
      9 C9          6.6330   36.4720   76.6380 C.ar      1 SUB1       -0.041
     10 C10         6.9640   37.5310   75.7610 C.ar      1 SUB1       -0.042
     11 C11         8.3290   37.8700   75.5480 C.ar      1 SUB1        0.045
     12 C12         9.3600   37.1560   76.2120 C.ar      1 SUB1       -0.028
     13 C13         9.0400   36.1000   77.0890 C.ar      1 SUB1        0.061
     14 CL14        8.7340   39.1510   74.4800 Cl        1 SUB1       -0.067
     15 CL15       10.3320   35.2670   77.8840 Cl        1 SUB1       -0.065
     16 C16         7.6790   31.3640   76.1200 C.3       1 SUB1        0.016
     17 C17         9.1880   31.1640   76.0270 C.ar      1 SUB1       -0.038
     18 C18         9.7150   29.8360   75.8460 C.ar      1 SUB1       -0.060
     19 C19        11.1140   29.6040   75.7620 C.ar      1 SUB1       -0.069
     20 C20        12.0130   30.7040   75.8610 C.ar      1 SUB1       -0.069
     21 C21        11.5100   32.0260   76.0400 C.ar      1 SUB1       -0.069
     22 C22        10.1100   32.2520   76.1210 C.ar      1 SUB1       -0.060
     23 C23         7.5490   32.1750   78.9240 C.3       1 SUB1        0.077
     24 C24         8.9060   32.2070   79.6980 C.ar      1 SUB1        0.009
     25 C25         9.3060   33.3470   80.4750 C.ar      1 SUB1       -0.030
     26 C26        10.5410   33.3880   81.1820 C.ar      1 SUB1       -0.038
     27 C27        11.4390   32.3020   81.1550 C.ar      1 SUB1       -0.038
     28 C28        11.0680   31.1560   80.4000 C.ar      1 SUB1        0.041
     29 C29         9.8160   31.1020   79.6760 C.ar      1 SUB1       -0.029
     30 C30        11.9980   29.9280   80.3290 C.3       1 SUB1        0.375
     31 F31        12.9640   30.1320   79.4200 F         1 SUB1       -0.220
     32 F32        11.3230   28.8130   79.9770 F         1 SUB1       -0.220
     33 F33        12.5800   29.6930   81.5150 F         1 SUB1       -0.220
     34 H21         7.7861   33.4891   75.7982 H         1 SUB1        0.080
     35 H91         5.5948   36.2081   76.8038 H         1 SUB1        0.067
     36 H101        6.1807   38.0821   75.2532 H         1 SUB1        0.064
     37 H121       10.3970   37.4236   76.0442 H         1 SUB1        0.064
     38 H161        7.3234   30.7187   76.9367 H         1 SUB1        0.049
     39 H162        7.2548   31.0260   75.1631 H         1 SUB1        0.049
     40 H181        9.0315   28.9979   75.7725 H         1 SUB1        0.056
     41 H191       11.4940   28.5982   75.6237 H         1 SUB1        0.060
     42 H201       13.0821   30.5358   75.8001 H         1 SUB1        0.056
     43 H211       12.1976   32.8607   76.1145 H         1 SUB1        0.060
     44 H221        9.7368   33.2608   76.2556 H         1 SUB1        0.056
     45 H231        6.7505   32.2639   79.6753 H         1 SUB1        0.069
     46 H232        7.4882   31.1960   78.4262 H         1 SUB1        0.069
     47 H251        8.6453   34.2049   80.5247 H         1 SUB1        0.080
     48 H261       10.7961   34.2733   81.7532 H         1 SUB1        0.068
     49 H271       12.3802   32.3393   81.6915 H         1 SUB1        0.080
     50 H291        9.5639   30.2129   79.1094 H         1 SUB1        0.078
@<TRIPOS>BOND
     1    1    2 1  
     2    1    6 am 
     3    1   23 1  
     4    2    3 1  
     5    2   16 1  
     6    3    4 2  
     7    3    5 2  
     8    6    7 2  
     9    6    8 1  
    10    8    9 ar 
    11    8   13 ar 
    12    9   10 ar 
    13   10   11 ar 
    14   11   12 ar 
    15   11   14 1  
    16   12   13 ar 
    17   13   15 1  
    18   16   17 1  
    19   17   18 ar 
    20   17   22 ar 
    21   18   19 ar 
    22   19   20 ar 
    23   20   21 ar 
    24   21   22 ar 
    25   23   24 1  
    26   24   25 ar 
    27   24   29 ar 
    28   25   26 ar 
    29   26   27 ar 
    30   27   28 ar 
    31   28   29 ar 
    32   28   30 1  
    33   30   31 1  
    34   30   32 1  
    35   30   33 1  
    36    2   34 1  
    37    9   35 1  
    38   10   36 1  
    39   12   37 1  
    40   16   38 1  
    41   16   39 1  
    42   18   40 1  
    43   19   41 1  
    44   20   42 1  
    45   21   43 1  
    46   22   44 1  
    47   23   45 1  
    48   23   46 1  
    49   25   47 1  
    50   26   48 1  
    51   27   49 1  
    52   29   50 1  
@<TRIPOS>SUBSTRUCTURE
     1 SUB1        1 GROUP

