### 
### Created by X-TOOL on Mon Oct 24 23:09:07 2005
### 

@<TRIPOS>MOLECULE
1lke_ligand
   62    66     1     0     0
SMALL
GAST_HUCK


@<TRIPOS>ATOM
      1 O23        15.2650  -21.2770   37.4530 O.2       1 SUB1       -0.387
      2 C23        14.6030  -22.2720   37.4610 C.2       1 SUB1        0.219
      3 C22        13.4710  -22.6250   36.6410 C.2       1 SUB1        0.002
      4 O21        14.8390  -23.3060   38.2920 O.3       1 SUB1       -0.266
      5 C21        13.9160  -24.3950   38.0480 C.3       1 SUB1        0.120
      6 C20        13.0620  -23.8540   36.9790 C.2       1 SUB1       -0.006
      7 C17        11.9260  -24.6400   36.4590 C.3       1 SUB1        0.018
      8 C16        12.1300  -26.1830   36.3780 C.3       1 SUB1       -0.032
      9 C13        10.5510  -24.4330   37.2170 C.3       1 SUB1        0.041
     10 C18        10.5420  -23.2570   38.1900 C.3       1 SUB1       -0.052
     11 C12         9.4700  -24.2150   36.1290 C.3       1 SUB1        0.066
     12 O12         9.6080  -22.8950   35.5440 O.3       1 SUB1       -0.391
     13 C14        10.3040  -25.7990   37.9190 C.3       1 SUB1        0.080
     14 C15        10.8390  -26.8230   36.9020 C.3       1 SUB1       -0.020
     15 O14        11.2120  -25.9320   39.0410 O.3       1 SUB1       -0.387
     16 C8          8.8450  -26.0090   38.3570 C.3       1 SUB1       -0.008
     17 C7          8.6220  -27.4280   38.8860 C.3       1 SUB1       -0.047
     18 C9          7.7830  -25.6750   37.2840 C.3       1 SUB1       -0.028
     19 C11         8.0680  -24.2710   36.6520 C.3       1 SUB1       -0.022
     20 C10         6.3470  -25.8090   37.8600 C.3       1 SUB1       -0.026
     21 C19         6.0900  -24.7760   38.9900 C.3       1 SUB1       -0.059
     22 C5          6.1190  -27.2550   38.3960 C.3       1 SUB1       -0.033
     23 C6          7.2120  -27.6550   39.4110 C.3       1 SUB1       -0.049
     24 C4          6.0880  -28.3180   37.2770 C.3       1 SUB1       -0.023
     25 C3          5.0730  -27.9620   36.1890 C.3       1 SUB1        0.056
     26 O32         3.7660  -28.0980   36.7460 O.3       1 SUB1       -0.392
     27 C2          5.2890  -26.5800   35.6480 C.3       1 SUB1       -0.026
     28 C1          5.2750  -25.5600   36.7670 C.3       1 SUB1       -0.045
     29 H31        13.0227  -21.9958   35.8735 H         1 SUB1        0.030
     30 H51        14.4403  -25.2990   37.7046 H         1 SUB1        0.086
     31 H52        13.3181  -24.6251   38.9421 H         1 SUB1        0.086
     32 H71        11.7696  -24.2790   35.4318 H         1 SUB1        0.055
     33 H81        12.3008  -26.4954   35.3373 H         1 SUB1        0.030
     34 H82        12.9775  -26.4936   37.0067 H         1 SUB1        0.030
     35 H101       10.7217  -22.3274   37.6300 H         1 SUB1        0.024
     36 H102        9.5642  -23.1909   38.6895 H         1 SUB1        0.024
     37 H103       11.3378  -23.3835   38.9387 H         1 SUB1        0.024
     38 H111        9.5858  -24.9897   35.3568 H         1 SUB1        0.060
     39 H121        8.9405  -22.7732   34.8791 H         1 SUB1        0.210
     40 H141       10.1109  -26.9700   36.0907 H         1 SUB1        0.030
     41 H142       11.0447  -27.7821   37.3997 H         1 SUB1        0.030
     42 H151       10.9551  -25.3283   39.7281 H         1 SUB1        0.210
     43 H161        8.6618  -25.3108   39.1870 H         1 SUB1        0.033
     44 H171        8.7999  -28.1446   38.0707 H         1 SUB1        0.027
     45 H172        9.3254  -27.6159   39.7106 H         1 SUB1        0.027
     46 H181        7.8646  -26.4226   36.4813 H         1 SUB1        0.031
     47 H191        7.9309  -23.5014   37.4258 H         1 SUB1        0.029
     48 H192        7.3588  -24.1046   35.8278 H         1 SUB1        0.029
     49 H211        5.0651  -24.9060   39.3677 H         1 SUB1        0.023
     50 H212        6.7991  -24.9384   39.8151 H         1 SUB1        0.023
     51 H213        6.1999  -23.7547   38.5967 H         1 SUB1        0.023
     52 H221        5.1410  -27.2788   38.8989 H         1 SUB1        0.031
     53 H231        7.0851  -28.7225   39.6440 H         1 SUB1        0.027
     54 H232        7.0681  -27.0530   40.3203 H         1 SUB1        0.027
     55 H241        7.0830  -28.3864   36.8131 H         1 SUB1        0.029
     56 H242        5.8072  -29.2906   37.7074 H         1 SUB1        0.029
     57 H251        5.1847  -28.6636   35.3493 H         1 SUB1        0.059
     58 H261        3.1177  -27.8813   36.0863 H         1 SUB1        0.210
     59 H271        6.2643  -26.5316   35.1417 H         1 SUB1        0.029
     60 H272        4.4855  -26.3331   34.9385 H         1 SUB1        0.029
     61 H281        4.2802  -25.5898   37.2354 H         1 SUB1        0.027
     62 H282        5.4498  -24.5701   36.3205 H         1 SUB1        0.027
@<TRIPOS>BOND
     1    1    2 2  
     2    2    3 1  
     3    2    4 1  
     4    3    6 2  
     5    4    5 1  
     6    5    6 1  
     7    6    7 1  
     8    7    8 1  
     9    7    9 1  
    10    8   14 1  
    11    9   10 1  
    12    9   11 1  
    13    9   13 1  
    14   11   12 1  
    15   11   19 1  
    16   13   14 1  
    17   13   15 1  
    18   13   16 1  
    19   16   17 1  
    20   16   18 1  
    21   17   23 1  
    22   18   19 1  
    23   18   20 1  
    24   20   21 1  
    25   20   22 1  
    26   20   28 1  
    27   22   23 1  
    28   22   24 1  
    29   24   25 1  
    30   25   26 1  
    31   25   27 1  
    32   27   28 1  
    33    3   29 1  
    34    5   30 1  
    35    5   31 1  
    36    7   32 1  
    37    8   33 1  
    38    8   34 1  
    39   10   35 1  
    40   10   36 1  
    41   10   37 1  
    42   11   38 1  
    43   12   39 1  
    44   14   40 1  
    45   14   41 1  
    46   15   42 1  
    47   16   43 1  
    48   17   44 1  
    49   17   45 1  
    50   18   46 1  
    51   19   47 1  
    52   19   48 1  
    53   21   49 1  
    54   21   50 1  
    55   21   51 1  
    56   22   52 1  
    57   23   53 1  
    58   23   54 1  
    59   24   55 1  
    60   24   56 1  
    61   25   57 1  
    62   26   58 1  
    63   27   59 1  
    64   27   60 1  
    65   28   61 1  
    66   28   62 1  
@<TRIPOS>SUBSTRUCTURE
     1 SUB1        1 GROUP

