1lke_ligand
  -I-interpret- 

 62 66  0  0  0  0  0  0  0  0999 V2000
   15.2650  -21.2770   37.4530 O   0  0  0  0  0
   14.6030  -22.2720   37.4610 C   0  0  0  0  0
   13.4710  -22.6250   36.6410 C   0  0  0  0  0
   14.8390  -23.3060   38.2920 O   0  0  0  0  0
   13.9160  -24.3950   38.0480 C   0  0  0  0  0
   13.0620  -23.8540   36.9790 C   0  0  0  0  0
   11.9260  -24.6400   36.4590 C   0  0  0  0  0
   12.1300  -26.1830   36.3780 C   0  0  0  0  0
   10.5510  -24.4330   37.2170 C   0  0  0  0  0
   10.5420  -23.2570   38.1900 C   0  0  0  0  0
    9.4700  -24.2150   36.1290 C   0  0  0  0  0
    9.6080  -22.8950   35.5440 O   0  0  0  0  0
   10.3040  -25.7990   37.9190 C   0  0  0  0  0
   10.8390  -26.8230   36.9020 C   0  0  0  0  0
   11.2120  -25.9320   39.0410 O   0  0  0  0  0
    8.8450  -26.0090   38.3570 C   0  0  0  0  0
    8.6220  -27.4280   38.8860 C   0  0  0  0  0
    7.7830  -25.6750   37.2840 C   0  0  0  0  0
    8.0680  -24.2710   36.6520 C   0  0  0  0  0
    6.3470  -25.8090   37.8600 C   0  0  0  0  0
    6.0900  -24.7760   38.9900 C   0  0  0  0  0
    6.1190  -27.2550   38.3960 C   0  0  0  0  0
    7.2120  -27.6550   39.4110 C   0  0  0  0  0
    6.0880  -28.3180   37.2770 C   0  0  0  0  0
    5.0730  -27.9620   36.1890 C   0  0  0  0  0
    3.7660  -28.0980   36.7460 O   0  0  0  0  0
    5.2890  -26.5800   35.6480 C   0  0  0  0  0
    5.2750  -25.5600   36.7670 C   0  0  0  0  0
   13.0227  -21.9958   35.8735 H   0  0  0  0  0
   14.4403  -25.2990   37.7046 H   0  0  0  0  0
   13.3181  -24.6251   38.9421 H   0  0  0  0  0
   11.7696  -24.2790   35.4318 H   0  0  0  0  0
   12.3008  -26.4954   35.3373 H   0  0  0  0  0
   12.9775  -26.4936   37.0067 H   0  0  0  0  0
   10.7217  -22.3274   37.6300 H   0  0  0  0  0
    9.5642  -23.1909   38.6895 H   0  0  0  0  0
   11.3378  -23.3835   38.9387 H   0  0  0  0  0
    9.5858  -24.9897   35.3568 H   0  0  0  0  0
    8.9405  -22.7732   34.8791 H   0  0  0  0  0
   10.1109  -26.9700   36.0907 H   0  0  0  0  0
   11.0447  -27.7821   37.3997 H   0  0  0  0  0
   10.9551  -25.3283   39.7281 H   0  0  0  0  0
    8.6618  -25.3108   39.1870 H   0  0  0  0  0
    8.7999  -28.1446   38.0707 H   0  0  0  0  0
    9.3254  -27.6159   39.7106 H   0  0  0  0  0
    7.8646  -26.4226   36.4813 H   0  0  0  0  0
    7.9309  -23.5014   37.4258 H   0  0  0  0  0
    7.3588  -24.1046   35.8278 H   0  0  0  0  0
    5.0651  -24.9060   39.3677 H   0  0  0  0  0
    6.7991  -24.9384   39.8151 H   0  0  0  0  0
    6.1999  -23.7547   38.5967 H   0  0  0  0  0
    5.1410  -27.2788   38.8989 H   0  0  0  0  0
    7.0851  -28.7225   39.6440 H   0  0  0  0  0
    7.0681  -27.0530   40.3203 H   0  0  0  0  0
    7.0830  -28.3864   36.8131 H   0  0  0  0  0
    5.8072  -29.2906   37.7074 H   0  0  0  0  0
    5.1847  -28.6636   35.3493 H   0  0  0  0  0
    3.1177  -27.8813   36.0863 H   0  0  0  0  0
    6.2643  -26.5316   35.1417 H   0  0  0  0  0
    4.4855  -26.3331   34.9385 H   0  0  0  0  0
    4.2802  -25.5898   37.2354 H   0  0  0  0  0
    5.4498  -24.5701   36.3205 H   0  0  0  0  0
  1  2  2  0  0  0
  2  3  1  0  0  0
  2  4  1  0  0  0
  3  6  2  0  0  0
  4  5  1  0  0  0
  5  6  1  0  0  0
  6  7  1  0  0  0
  7  8  1  0  0  0
  7  9  1  0  0  0
  8 14  1  0  0  0
  9 10  1  0  0  0
  9 11  1  0  0  0
  9 13  1  0  0  0
 11 12  1  0  0  0
 11 19  1  0  0  0
 13 14  1  0  0  0
 13 15  1  0  0  0
 13 16  1  0  0  0
 16 17  1  0  0  0
 16 18  1  0  0  0
 17 23  1  0  0  0
 18 19  1  0  0  0
 18 20  1  0  0  0
 20 21  1  0  0  0
 20 22  1  0  0  0
 20 28  1  0  0  0
 22 23  1  0  0  0
 22 24  1  0  0  0
 24 25  1  0  0  0
 25 26  1  0  0  0
 25 27  1  0  0  0
 27 28  1  0  0  0
  3 29  1  0  0  0
  5 30  1  0  0  0
  5 31  1  0  0  0
  7 32  1  0  0  0
  8 33  1  0  0  0
  8 34  1  0  0  0
 10 35  1  0  0  0
 10 36  1  0  0  0
 10 37  1  0  0  0
 11 38  1  0  0  0
 12 39  1  0  0  0
 14 40  1  0  0  0
 14 41  1  0  0  0
 15 42  1  0  0  0
 16 43  1  0  0  0
 17 44  1  0  0  0
 17 45  1  0  0  0
 18 46  1  0  0  0
 19 47  1  0  0  0
 19 48  1  0  0  0
 21 49  1  0  0  0
 21 50  1  0  0  0
 21 51  1  0  0  0
 22 52  1  0  0  0
 23 53  1  0  0  0
 23 54  1  0  0  0
 24 55  1  0  0  0
 24 56  1  0  0  0
 25 57  1  0  0  0
 26 58  1  0  0  0
 27 59  1  0  0  0
 27 60  1  0  0  0
 28 61  1  0  0  0
 28 62  1  0  0  0
M  END
$$$$
