2bza_ligand
  -I-interpret- 

 18 18  0  0  0  0  0  0  0  0999 V2000
  -11.0608   28.5144   40.9585 H   0  0  0  0  0
  -10.6072   28.2630   42.5206 H   0  0  0  0  0
  -11.5236   29.5735   42.1304 H   0  0  0  0  0
  -12.2374   26.8407   41.8893 H   0  0  0  0  0
  -14.8476   28.8004   42.9953 H   0  0  0  0  0
  -11.3430   28.6040   41.9220 N   0  3  0  0  0
  -12.4460   27.8940   42.1280 C   0  0  0  0  0
  -12.8990   27.9750   43.4640 C   0  0  0  0  0
  -14.1950   28.4740   43.7970 C   0  0  0  0  0
  -14.6620   28.5600   45.1270 C   0  0  0  0  0
  -13.8430   28.1460   46.1740 C   0  0  0  0  0
  -12.5590   27.6490   45.8890 C   0  0  0  0  0
  -12.0900   27.5620   44.5580 C   0  0  0  0  0
  -15.6538   28.9467   45.3318 H   0  0  0  0  0
  -14.1917   28.2062   47.1986 H   0  0  0  0  0
  -11.9186   27.3275   46.7024 H   0  0  0  0  0
  -11.0960   27.1735   44.3682 H   0  0  0  0  0
  -13.2375   28.2708   41.4635 H   0  0  0  0  0
  6  1  1  0  0  0
  6  2  1  0  0  0
  6  3  1  0  0  0
  7  4  1  0  0  0
  6  7  1  0  0  0
  7  8  1  0  0  0
  8 13  4  0  0  0
  8  9  4  0  0  0
  9 10  4  0  0  0
 10 11  4  0  0  0
 11 12  4  0  0  0
 12 13  4  0  0  0
  9  5  1  0  0  0
 10 14  1  0  0  0
 11 15  1  0  0  0
 12 16  1  0  0  0
 13 17  1  0  0  0
  7 18  1  0  0  0
M  END
$$$$
