### 
### Created by X-TOOL on Mon Oct 24 23:06:46 2005
### 

@<TRIPOS>MOLECULE
2bza_ligand
   18    18     1     0     0
SMALL
GAST_HUCK


@<TRIPOS>ATOM
      1 H61       -11.0608   28.5144   40.9585 H         1 SUB1        0.201
      2 H62       -10.6072   28.2630   42.5206 H         1 SUB1        0.201
      3 H63       -11.5236   29.5735   42.1304 H         1 SUB1        0.201
      4 H71       -12.2374   26.8407   41.8893 H         1 SUB1        0.098
      5 H91       -14.8476   28.8004   42.9953 H         1 SUB1        0.056
      6 N         -11.3430   28.6040   41.9220 N.4       1 SUB1        0.231
      7 C         -12.4460   27.8940   42.1280 C.3       1 SUB1       -0.002
      8 C1        -12.8990   27.9750   43.4640 C.ar      1 SUB1        0.001
      9 C2        -14.1950   28.4740   43.7970 C.ar      1 SUB1       -0.055
     10 C3        -14.6620   28.5600   45.1270 C.ar      1 SUB1       -0.068
     11 C4        -13.8430   28.1460   46.1740 C.ar      1 SUB1       -0.069
     12 C5        -12.5590   27.6490   45.8890 C.ar      1 SUB1       -0.068
     13 C6        -12.0900   27.5620   44.5580 C.ar      1 SUB1       -0.055
     14 H101      -15.6538   28.9467   45.3318 H         1 SUB1        0.060
     15 H111      -14.1917   28.2062   47.1986 H         1 SUB1        0.056
     16 H121      -11.9186   27.3275   46.7024 H         1 SUB1        0.060
     17 H131      -11.0960   27.1735   44.3682 H         1 SUB1        0.056
     18 H72       -13.2375   28.2708   41.4635 H         1 SUB1        0.098
@<TRIPOS>BOND
     1    6    1 1  
     2    6    2 1  
     3    6    3 1  
     4    7    4 1  
     5    6    7 1  
     6    7    8 1  
     7    8   13 ar 
     8    8    9 ar 
     9    9   10 ar 
    10   10   11 ar 
    11   11   12 ar 
    12   12   13 ar 
    13    9    5 1  
    14   10   14 1  
    15   11   15 1  
    16   12   16 1  
    17   13   17 1  
    18    7   18 1  
@<TRIPOS>SUBSTRUCTURE
     1 SUB1        1 GROUP

