### 
### Created by X-TOOL on Sun Jun  3 11:51:47 2007
### 

@<TRIPOS>MOLECULE
2amt_ligand
   59    61     1     0     0
SMALL
GAST_HUCK


@<TRIPOS>ATOM
      1 O1          4.7270    4.8630   15.1430 O.2       1 SUB1       -0.407
      2 C1          3.7620    5.6210   15.0730 C.2       1 SUB1        0.251
      3 N4          3.4470    6.4200   16.1820 N.2       1 SUB1       -0.277
      4 C9          2.3540    7.2940   16.1370 C.2       1 SUB1        0.085
      5 N3          2.0660    8.0440   17.1960 N.pl3     1 SUB1       -0.316
      6 C8          1.5750    7.3740   14.9870 C.2       1 SUB1        0.008
      7 C7          1.8800    6.5880   13.8780 C.2       1 SUB1        0.079
      8 N2          2.9760    5.6970   13.9030 N.am      1 SUB1       -0.165
      9 C2          3.3060    4.8530   12.7090 C.3       1 SUB1        0.212
     10 O2          3.2360    5.6570   11.4910 O.3       1 SUB1       -0.335
     11 C3          2.3420    3.6720   12.5190 C.3       1 SUB1        0.141
     12 O4          3.0800    2.5090   12.1220 O.3       1 SUB1       -0.383
     13 C4          1.4280    4.1350   11.3910 C.3       1 SUB1        0.115
     14 O3          0.9520    3.0170   10.6330 O.3       1 SUB1       -0.386
     15 C5          2.3650    4.9960   10.5450 C.3       1 SUB1        0.116
     16 C6          1.5780    6.0850    9.8130 C.3       1 SUB1        0.088
     17 O2          0.8740    6.9350   10.7380 O.3       1 SUB1       -0.319
     18 P1         -0.3880    7.8150   10.2670 P.3       1 SUB1        0.301
     19 O1          0.1250    9.0480    9.6290 O.co2     1 SUB1       -0.533
     20 O9         -1.3440    7.9170   11.3880 O.co2     1 SUB1       -0.533
     21 O3         -1.0550    6.8460    9.1530 O.3       1 SUB1       -0.249
     22 P2         -1.6890    7.3550    7.7500 P.3       1 SUB1        0.301
     23 O8         -1.1870    8.7030    7.3930 O.co2     1 SUB1       -0.533
     24 O7         -3.1520    7.1150    7.7900 O.co2     1 SUB1       -0.533
     25 O4         -1.0370    6.3120    6.6970 O.3       1 SUB1       -0.319
     26 C7         -1.2440    4.8950    6.8140 C.3       1 SUB1        0.087
     27 C8          0.0910    4.1500    6.7590 C.3       1 SUB1        0.101
     28 O5          0.2910    3.5620    5.4520 O.3       1 SUB1       -0.277
     29 C9          1.3570    4.0900    4.7730 C.2       1 SUB1        0.255
     30 O6          2.2660    4.6590    5.3820 O.2       1 SUB1       -0.365
     31 C1          1.4120    3.9610    3.2400 C.ar      1 SUB1        0.079
     32 C2          0.2290    3.7710    2.5230 C.ar      1 SUB1       -0.052
     33 C3          0.2650    3.6530    1.1330 C.ar      1 SUB1       -0.069
     34 C4          1.4790    3.7210    0.4510 C.ar      1 SUB1       -0.069
     35 C5          2.6630    3.9110    1.1620 C.ar      1 SUB1       -0.038
     36 C6          2.6310    4.0320    2.5520 C.ar      1 SUB1        0.058
     37 N1          3.7750    4.2140    3.2060 N.pl3     1 SUB1       -0.332
     38 H           1.2630    8.6884   17.1677 H         1 SUB1        0.183
     39 H           2.6459    7.9807   18.0449 H         1 SUB1        0.183
     40 H           0.7235    8.0537   14.9537 H         1 SUB1        0.037
     41 H           1.2658    6.6613   12.9805 H         1 SUB1        0.133
     42 H           4.3093    4.4670   12.8891 H         1 SUB1        0.103
     43 H           1.7932    3.4077   13.4229 H         1 SUB1        0.068
     44 H           2.4755    1.7726   12.0040 H         1 SUB1        0.210
     45 H           0.5385    4.6613   11.7372 H         1 SUB1        0.065
     46 H           1.6988    2.5471   10.2546 H         1 SUB1        0.210
     47 H           2.8932    4.3871    9.8113 H         1 SUB1        0.065
     48 H           0.8492    5.6057    9.1593 H         1 SUB1        0.062
     49 H           2.2790    6.6967    9.2451 H         1 SUB1        0.062
     50 H          -1.8700    4.5599    5.9870 H         1 SUB1        0.062
     51 H          -1.7262    4.6860    7.7689 H         1 SUB1        0.062
     52 H           0.0844    3.3567    7.5065 H         1 SUB1        0.064
     53 H           0.8981    4.8554    6.9568 H         1 SUB1        0.064
     54 H          -0.7237    3.7148    3.0496 H         1 SUB1        0.064
     55 H          -0.6613    3.5068    0.5774 H         1 SUB1        0.052
     56 H           1.5024    3.6259   -0.6346 H         1 SUB1        0.062
     57 H           3.6140    3.9651    0.6321 H         1 SUB1        0.053
     58 H           4.6544    4.2628    2.6915 H         1 SUB1        0.175
     59 H           3.7728    4.3047    4.2220 H         1 SUB1        0.175
@<TRIPOS>BOND
     1    1    2 2  
     2    2    3 1  
     3    2    8 am 
     4    3    4 2  
     5    4    5 1  
     6    4    6 1  
     7    6    7 2  
     8    7    8 1  
     9    8    9 1  
    10    9   10 1  
    11    9   11 1  
    12   10   15 1  
    13   11   12 1  
    14   11   13 1  
    15   13   14 1  
    16   13   15 1  
    17   15   16 1  
    18   16   17 1  
    19   17   18 1  
    20   18   19 2  
    21   18   20 2  
    22   18   21 1  
    23   21   22 1  
    24   22   23 2  
    25   22   24 2  
    26   22   25 1  
    27   25   26 1  
    28   26   27 1  
    29   27   28 1  
    30   28   29 1  
    31   29   30 2  
    32   29   31 1  
    33   31   32 ar 
    34   31   36 ar 
    35   32   33 ar 
    36   33   34 ar 
    37   34   35 ar 
    38   35   36 ar 
    39   36   37 1  
    40    5   38 1  
    41    5   39 1  
    42    6   40 1  
    43    7   41 1  
    44    9   42 1  
    45   11   43 1  
    46   12   44 1  
    47   13   45 1  
    48   14   46 1  
    49   15   47 1  
    50   16   48 1  
    51   16   49 1  
    52   26   50 1  
    53   26   51 1  
    54   27   52 1  
    55   27   53 1  
    56   32   54 1  
    57   33   55 1  
    58   34   56 1  
    59   35   57 1  
    60   37   58 1  
    61   37   59 1  
@<TRIPOS>SUBSTRUCTURE
     1 SUB1        1 GROUP

