### 
### Created by X-TOOL on Tue Oct 25 02:16:16 2005
### 

@<TRIPOS>MOLECULE
1kyv_ligand
   47    49     1     0     0
SMALL
GAST_HUCK


@<TRIPOS>ATOM
      1 H241       71.9373   20.8784   37.7497 H         1 SUB1        0.225
      2 H301       71.0414   26.0121   42.5077 H         1 SUB1        0.056
      3 H321       71.2384   27.8734   44.1163 H         1 SUB1        0.037
      4 H322       72.6223   28.9655   43.7717 H         1 SUB1        0.037
      5 H323       72.7219   27.7892   45.1256 H         1 SUB1        0.037
      6 H341       76.3471   27.7040   43.5918 H         1 SUB1        0.040
      7 H342       75.1064   27.7233   44.8906 H         1 SUB1        0.040
      8 H343       75.0067   28.8984   43.5357 H         1 SUB1        0.040
      9 H351       76.2097   25.9727   42.1019 H         1 SUB1        0.049
     10 H391       76.6064   22.9811   40.2371 H         1 SUB1        0.063
     11 H392       76.7414   24.4289   41.2919 H         1 SUB1        0.063
     12 H401       76.4980   25.7902   39.0790 H         1 SUB1        0.065
     13 H411       75.8104   23.9030   37.8874 H         1 SUB1        0.210
     14 H421       78.8741   25.3540   38.5986 H         1 SUB1        0.065
     15 H431       79.0263   23.1564   39.3947 H         1 SUB1        0.210
     16 H441       78.6199   25.4666   41.5534 H         1 SUB1        0.064
     17 H451       78.2057   27.6948   39.7771 H         1 SUB1        0.210
     18 H461       80.9096   26.1340   41.1820 H         1 SUB1        0.058
     19 H462       80.0386   27.7041   41.2360 H         1 SUB1        0.058
     20 H471       79.8600   27.5456   38.9033 H         1 SUB1        0.209
     21 N1         74.5700   22.3310   38.8900 N.2       1 SUB1       -0.255
     22 C2         73.8280   21.4480   38.1240 C.2       1 SUB1        0.244
     23 O2         74.4390   20.7110   37.3880 O.2       1 SUB1       -0.390
     24 N3         72.4750   21.5180   38.2990 N.am      1 SUB1       -0.194
     25 C4         71.7250   22.3700   39.1500 C.2       1 SUB1        0.270
     26 O4         70.5180   22.3150   39.1990 O.2       1 SUB1       -0.366
     27 C4A        72.5970   23.3300   39.9600 C.2       1 SUB1        0.208
     28 N5         72.0180   24.1870   40.7890 N.2       1 SUB1       -0.239
     29 C5A        72.8360   25.0830   41.5410 C.ar      1 SUB1        0.086
     30 C6         72.1220   26.0120   42.4220 C.ar      1 SUB1       -0.040
     31 C7         72.9300   26.9010   43.1470 C.ar      1 SUB1       -0.043
     32 C7M        72.3350   27.9590   44.1100 C.3       1 SUB1       -0.035
     33 C8         74.4120   26.8550   42.9980 C.ar      1 SUB1       -0.042
     34 C8M        75.2830   27.8710   43.8150 C.3       1 SUB1       -0.031
     35 C9         75.1280   25.9750   42.1730 C.ar      1 SUB1       -0.026
     36 C9A        74.2780   25.0680   41.4240 C.ar      1 SUB1        0.105
     37 N10        74.8500   24.0780   40.4860 N.pl3     1 SUB1       -0.214
     38 C10        74.0160   23.2490   39.7840 C.2       1 SUB1        0.189
     39 C1'        76.3210   24.0370   40.3540 C.3       1 SUB1        0.089
     40 C2'        76.9750   24.8080   39.2120 C.3       1 SUB1        0.110
     41 O2'        76.7450   23.9880   38.0350 O.3       1 SUB1       -0.387
     42 C3'        78.4230   25.0100   39.5410 C.3       1 SUB1        0.111
     43 O3'        79.1610   23.8820   39.9930 O.3       1 SUB1       -0.387
     44 C4'        78.7760   25.9980   40.6030 C.3       1 SUB1        0.106
     45 O4'        77.9650   27.1870   40.5430 O.3       1 SUB1       -0.387
     46 C5'        80.1530   26.7590   40.6850 C.3       1 SUB1        0.073
     47 O5'        80.5280   27.0140   39.3200 O.3       1 SUB1       -0.392
@<TRIPOS>BOND
     1   24    1 1  
     2   30    2 1  
     3   32    3 1  
     4   32    4 1  
     5   32    5 1  
     6   34    6 1  
     7   34    7 1  
     8   34    8 1  
     9   35    9 1  
    10   39   10 1  
    11   39   11 1  
    12   40   12 1  
    13   41   13 1  
    14   42   14 1  
    15   43   15 1  
    16   44   16 1  
    17   45   17 1  
    18   46   18 1  
    19   46   19 1  
    20   47   20 1  
    21   38   21 2  
    22   21   22 1  
    23   22   24 am 
    24   22   23 2  
    25   25   24 am 
    26   27   25 1  
    27   25   26 2  
    28   38   27 1  
    29   27   28 2  
    30   29   28 1  
    31   36   29 ar 
    32   29   30 ar 
    33   30   31 ar 
    34   33   31 ar 
    35   31   32 1  
    36   35   33 ar 
    37   33   34 1  
    38   36   35 ar 
    39   37   36 1  
    40   39   37 1  
    41   37   38 1  
    42   40   39 1  
    43   42   40 1  
    44   40   41 1  
    45   44   42 1  
    46   42   43 1  
    47   46   44 1  
    48   44   45 1  
    49   46   47 1  
@<TRIPOS>SUBSTRUCTURE
     1 SUB1        1 GROUP

