1kyv_ligand
  -I-interpret- 

 47 49  0  0  0  0  0  0  0  0999 V2000
   71.9373   20.8784   37.7497 H   0  0  0  0  0
   71.0414   26.0121   42.5077 H   0  0  0  0  0
   71.2384   27.8734   44.1163 H   0  0  0  0  0
   72.6223   28.9655   43.7717 H   0  0  0  0  0
   72.7219   27.7892   45.1256 H   0  0  0  0  0
   76.3471   27.7040   43.5918 H   0  0  0  0  0
   75.1064   27.7233   44.8906 H   0  0  0  0  0
   75.0067   28.8984   43.5357 H   0  0  0  0  0
   76.2097   25.9727   42.1019 H   0  0  0  0  0
   76.6064   22.9811   40.2371 H   0  0  0  0  0
   76.7414   24.4289   41.2919 H   0  0  0  0  0
   76.4980   25.7902   39.0790 H   0  0  0  0  0
   75.8104   23.9030   37.8874 H   0  0  0  0  0
   78.8741   25.3540   38.5986 H   0  0  0  0  0
   79.0263   23.1564   39.3947 H   0  0  0  0  0
   78.6199   25.4666   41.5534 H   0  0  0  0  0
   78.2057   27.6948   39.7771 H   0  0  0  0  0
   80.9096   26.1340   41.1820 H   0  0  0  0  0
   80.0386   27.7041   41.2360 H   0  0  0  0  0
   79.8600   27.5456   38.9033 H   0  0  0  0  0
   74.5700   22.3310   38.8900 N   0  0  0  0  0
   73.8280   21.4480   38.1240 C   0  0  0  0  0
   74.4390   20.7110   37.3880 O   0  0  0  0  0
   72.4750   21.5180   38.2990 N   0  0  0  0  0
   71.7250   22.3700   39.1500 C   0  0  0  0  0
   70.5180   22.3150   39.1990 O   0  0  0  0  0
   72.5970   23.3300   39.9600 C   0  0  0  0  0
   72.0180   24.1870   40.7890 N   0  0  0  0  0
   72.8360   25.0830   41.5410 C   0  0  0  0  0
   72.1220   26.0120   42.4220 C   0  0  0  0  0
   72.9300   26.9010   43.1470 C   0  0  0  0  0
   72.3350   27.9590   44.1100 C   0  0  0  0  0
   74.4120   26.8550   42.9980 C   0  0  0  0  0
   75.2830   27.8710   43.8150 C   0  0  0  0  0
   75.1280   25.9750   42.1730 C   0  0  0  0  0
   74.2780   25.0680   41.4240 C   0  0  0  0  0
   74.8500   24.0780   40.4860 N   0  0  0  0  0
   74.0160   23.2490   39.7840 C   0  0  0  0  0
   76.3210   24.0370   40.3540 C   0  0  0  0  0
   76.9750   24.8080   39.2120 C   0  0  0  0  0
   76.7450   23.9880   38.0350 O   0  0  0  0  0
   78.4230   25.0100   39.5410 C   0  0  0  0  0
   79.1610   23.8820   39.9930 O   0  0  0  0  0
   78.7760   25.9980   40.6030 C   0  0  0  0  0
   77.9650   27.1870   40.5430 O   0  0  0  0  0
   80.1530   26.7590   40.6850 C   0  0  0  0  0
   80.5280   27.0140   39.3200 O   0  0  0  0  0
 24  1  1  0  0  0
 30  2  1  0  0  0
 32  3  1  0  0  0
 32  4  1  0  0  0
 32  5  1  0  0  0
 34  6  1  0  0  0
 34  7  1  0  0  0
 34  8  1  0  0  0
 35  9  1  0  0  0
 39 10  1  0  0  0
 39 11  1  0  0  0
 40 12  1  0  0  0
 41 13  1  0  0  0
 42 14  1  0  0  0
 43 15  1  0  0  0
 44 16  1  0  0  0
 45 17  1  0  0  0
 46 18  1  0  0  0
 46 19  1  0  0  0
 47 20  1  0  0  0
 38 21  2  0  0  0
 21 22  1  0  0  0
 22 24  1  0  0  0
 22 23  2  0  0  0
 25 24  1  0  0  0
 27 25  1  0  0  0
 25 26  2  0  0  0
 38 27  1  0  0  0
 27 28  2  0  0  0
 29 28  1  0  0  0
 36 29  4  0  0  0
 29 30  4  0  0  0
 30 31  4  0  0  0
 33 31  4  0  0  0
 31 32  1  0  0  0
 35 33  4  0  0  0
 33 34  1  0  0  0
 36 35  4  0  0  0
 37 36  1  0  0  0
 39 37  1  0  0  0
 37 38  1  0  0  0
 40 39  1  0  0  0
 42 40  1  0  0  0
 40 41  1  0  0  0
 44 42  1  0  0  0
 42 43  1  0  0  0
 46 44  1  0  0  0
 44 45  1  0  0  0
 46 47  1  0  0  0
M  END
$$$$
