### 
### Created by X-TOOL on Sun Jun  3 11:32:02 2007
### 

@<TRIPOS>MOLECULE
2j7d_ligand
   34    35     1     0     0
SMALL
GAST_HUCK


@<TRIPOS>ATOM
      1 C1         -0.8960   10.5930   10.5900 C.2       1 SUB1        0.143
      2 C2          0.0790   11.3970    9.8090 C.3       1 SUB1        0.158
      3 O2          0.3250   12.6490   10.4320 O.3       1 SUB1       -0.370
      4 C3         -0.4530   11.6990    8.4080 C.3       1 SUB1        0.125
      5 O3          0.6740   11.9900    7.5790 O.3       1 SUB1       -0.384
      6 C4         -1.3380   10.5470    7.8970 C.3       1 SUB1        0.118
      7 C80        -2.6760    9.4050   11.1250 C.2       1 SUB1        0.028
      8 N10        -2.1030   10.1490   10.1590 N.pl3     1 SUB1       -0.249
      9 O4         -1.6680   10.6890    6.5180 O.3       1 SUB1       -0.386
     10 C5         -2.6030   10.4470    8.7850 C.3       1 SUB1        0.117
     11 C6         -3.5510    9.3730    8.3240 C.3       1 SUB1        0.077
     12 O6         -3.0290    8.0670    8.5650 O.3       1 SUB1       -0.392
     13 N1         -0.7000   10.1480   11.8460 N.2       1 SUB1       -0.327
     14 C7         -1.7760    9.4130   12.1750 C.2       1 SUB1        0.035
     15 C8         -2.1320    8.7220   13.4410 C.3       1 SUB1        0.181
     16 O8         -2.8830    7.5150   13.2500 O.3       1 SUB1       -0.359
     17 C9         -0.1880    7.3170   14.0820 C.3       1 SUB1        0.041
     18 O9         -0.9590    8.5300   14.2460 O.3       1 SUB1       -0.347
     19 H           0.9929   10.8053    9.7562 H         1 SUB1        0.086
     20 H           0.9567   13.1471    9.9082 H         1 SUB1        0.214
     21 H          -1.1111   12.5679    8.4027 H         1 SUB1        0.068
     22 H           0.3730   12.1849    6.6885 H         1 SUB1        0.210
     23 H          -0.7752    9.6165    7.9713 H         1 SUB1        0.065
     24 H          -3.6430    8.9035   11.0871 H         1 SUB1        0.066
     25 H          -0.8620   10.6991    5.9966 H         1 SUB1        0.210
     26 H          -3.1734   11.3747    8.7401 H         1 SUB1        0.070
     27 H          -3.7041    9.4884    7.2510 H         1 SUB1        0.059
     28 H          -4.4833    9.4773    8.8790 H         1 SUB1        0.059
     29 H          -2.8776    7.9528    9.5060 H         1 SUB1        0.209
     30 H          -2.8146    9.3751   13.9846 H         1 SUB1        0.102
     31 H          -2.3316    6.8622   12.8125 H         1 SUB1        0.215
     32 H          -0.8174    6.4552   14.3039 H         1 SUB1        0.053
     33 H           0.1704    7.2519   13.0547 H         1 SUB1        0.053
     34 H           0.6619    7.3332   14.7643 H         1 SUB1        0.053
@<TRIPOS>BOND
     1    1    2 1  
     2    1    8 1  
     3    1   13 2  
     4    2    3 1  
     5    2    4 1  
     6    4    5 1  
     7    4    6 1  
     8    6    9 1  
     9    6   10 1  
    10    8    7 1  
    11    7   14 2  
    12    8   10 1  
    13   10   11 1  
    14   11   12 1  
    15   13   14 1  
    16   14   15 1  
    17   15   16 1  
    18   15   18 1  
    19   18   17 1  
    20    2   19 1  
    21    3   20 1  
    22    4   21 1  
    23    5   22 1  
    24    6   23 1  
    25    7   24 1  
    26    9   25 1  
    27   10   26 1  
    28   11   27 1  
    29   11   28 1  
    30   12   29 1  
    31   15   30 1  
    32   16   31 1  
    33   17   32 1  
    34   17   33 1  
    35   17   34 1  
@<TRIPOS>SUBSTRUCTURE
     1 SUB1        1 GROUP

