1utj_ligand
  -I-interpret- 

 18 18  0  0  0  0  0  0  0  0999 V2000
   25.8960   17.3950   57.6730 N   0  3  0  0  0
   24.4380   17.2620   57.3720 C   0  0  0  0  0
   23.7520   16.1380   58.0900 C   0  0  0  0  0
   24.2980   14.8560   58.0800 C   0  0  0  0  0
   23.6700   13.8080   58.7620 C   0  0  0  0  0
   22.4890   14.0490   59.4560 C   0  0  0  0  0
   21.9420   15.3230   59.4690 C   0  0  0  0  0
   22.5730   16.3590   58.7880 C   0  0  0  0  0
   26.3950   16.5200   57.4120 H   0  0  0  0  0
   26.0400   17.5890   58.6800 H   0  0  0  0  0
   26.2714   18.1604   57.1351 H   0  0  0  0  0
   24.3246   17.0979   56.2903 H   0  0  0  0  0
   23.9422   18.2025   57.6542 H   0  0  0  0  0
   25.2183   14.6688   57.5386 H   0  0  0  0  0
   24.1016   12.8137   58.7495 H   0  0  0  0  0
   21.9968   13.2417   59.9861 H   0  0  0  0  0
   21.0220   15.5119   60.0102 H   0  0  0  0  0
   22.1381   17.3518   58.8027 H   0  0  0  0  0
  1  2  1  0  0  0
  1  9  1  0  0  0
  1 10  1  0  0  0
  2  3  1  0  0  0
  3  4  4  0  0  0
  3  8  4  0  0  0
  4  5  4  0  0  0
  5  6  4  0  0  0
  6  7  4  0  0  0
  7  8  4  0  0  0
  1 11  1  0  0  0
  2 12  1  0  0  0
  2 13  1  0  0  0
  4 14  1  0  0  0
  5 15  1  0  0  0
  6 16  1  0  0  0
  7 17  1  0  0  0
  8 18  1  0  0  0
M  END
$$$$
