### 
### Created by X-TOOL on Mon Oct 24 22:50:48 2005
### 

@<TRIPOS>MOLECULE
1utj_ligand
   18    18     1     0     0
SMALL
GAST_HUCK


@<TRIPOS>ATOM
      1 N          25.8960   17.3950   57.6730 N.4       1 SUB1        0.231
      2 C          24.4380   17.2620   57.3720 C.3       1 SUB1       -0.002
      3 C1         23.7520   16.1380   58.0900 C.ar      1 SUB1        0.001
      4 C2         24.2980   14.8560   58.0800 C.ar      1 SUB1       -0.055
      5 C3         23.6700   13.8080   58.7620 C.ar      1 SUB1       -0.068
      6 C4         22.4890   14.0490   59.4560 C.ar      1 SUB1       -0.069
      7 C5         21.9420   15.3230   59.4690 C.ar      1 SUB1       -0.068
      8 C6         22.5730   16.3590   58.7880 C.ar      1 SUB1       -0.055
      9 H11        26.3950   16.5200   57.4120 H         1 SUB1        0.201
     10 H12        26.0400   17.5890   58.6800 H         1 SUB1        0.201
     11 H13        26.2714   18.1604   57.1351 H         1 SUB1        0.201
     12 H21        24.3246   17.0979   56.2903 H         1 SUB1        0.098
     13 H22        23.9422   18.2025   57.6542 H         1 SUB1        0.098
     14 H41        25.2183   14.6688   57.5386 H         1 SUB1        0.056
     15 H51        24.1016   12.8137   58.7495 H         1 SUB1        0.060
     16 H61        21.9968   13.2417   59.9861 H         1 SUB1        0.056
     17 H71        21.0220   15.5119   60.0102 H         1 SUB1        0.060
     18 H81        22.1381   17.3518   58.8027 H         1 SUB1        0.056
@<TRIPOS>BOND
     1    1    2 1  
     2    1    9 1  
     3    1   10 1  
     4    2    3 1  
     5    3    4 ar 
     6    3    8 ar 
     7    4    5 ar 
     8    5    6 ar 
     9    6    7 ar 
    10    7    8 ar 
    11    1   11 1  
    12    2   12 1  
    13    2   13 1  
    14    4   14 1  
    15    5   15 1  
    16    6   16 1  
    17    7   17 1  
    18    8   18 1  
@<TRIPOS>SUBSTRUCTURE
     1 SUB1        1 GROUP

