### 
### Created by X-TOOL on Tue Oct 25 01:24:44 2005
### 

@<TRIPOS>MOLECULE
1heg_ligand
   89    89     1     0     0
SMALL
GAST_HUCK


@<TRIPOS>ATOM
      1 N         -13.8230   14.4740   35.2070 N.4       1 SUB1        0.238
      2 CA        -12.5640   14.2090   34.5660 C.3       1 SUB1        0.062
      3 C         -12.3220   15.0960   33.3430 C.2       1 SUB1        0.226
      4 O         -13.0380   15.2390   32.3750 O.2       1 SUB1       -0.391
      5 CB        -12.2500   12.7420   34.3720 C.3       1 SUB1       -0.004
      6 N         -11.1640   15.7690   33.4360 N.am      1 SUB1       -0.261
      7 CA        -10.5980   16.6900   32.5180 C.3       1 SUB1        0.128
      8 C         -10.5140   16.1130   31.1200 C.2       1 SUB1        0.202
      9 O          -9.8530   15.1410   30.7800 O.2       1 SUB1       -0.394
     10 CB         -9.2620   17.1870   33.1080 C.3       1 SUB1       -0.024
     11 N         -11.2340   16.8020   30.1970 N.am      1 SUB1       -0.278
     12 CA        -11.2840   16.4970   28.7790 C.3       1 SUB1        0.078
     13 CB        -12.6700   16.0790   28.3220 C.3       1 SUB1        0.006
     14 CG        -13.4320   14.9710   29.0480 C.ar      1 SUB1       -0.041
     15 CD1       -13.0760   13.6290   28.9830 C.ar      1 SUB1       -0.060
     16 CD2       -14.5600   15.3730   29.8070 C.ar      1 SUB1       -0.060
     17 CE1       -13.8180   12.6380   29.6610 C.ar      1 SUB1       -0.069
     18 CE2       -15.3000   14.3800   30.4830 C.ar      1 SUB1       -0.069
     19 CZ        -14.9170   13.0430   30.4120 C.ar      1 SUB1       -0.069
     20 CH        -10.8180   17.7530   28.0100 C.3       1 SUB1        0.082
     21 OH        -11.6970   18.8220   28.2490 O.3       1 SUB1       -0.389
     22 CH2        -9.4050   18.1960   28.5460 C.3       1 SUB1       -0.008
     23 CA         -8.6050   18.8260   27.3980 C.3       1 SUB1        0.040
     24 C          -8.1830   17.8170   26.3600 C.2       1 SUB1        0.178
     25 O          -7.4700   16.8490   26.6960 O.2       1 SUB1       -0.397
     26 N          -8.5850   17.9710   25.1030 N.am      1 SUB1       -0.265
     27 CA         -8.2530   17.0230   24.0680 C.3       1 SUB1        0.133
     28 C          -7.3120   17.7050   23.0540 C.2       1 SUB1        0.204
     29 O          -7.5440   18.7990   22.5960 O.2       1 SUB1       -0.394
     30 CB         -9.4570   16.3770   23.3870 C.3       1 SUB1       -0.006
     31 CG1        -9.2640   14.9020   23.0550 C.3       1 SUB1       -0.058
     32 CG2       -10.7390   16.5330   24.2240 C.3       1 SUB1       -0.058
     33 N          -6.2770   16.9100   22.7550 N.am      1 SUB1       -0.262
     34 CA         -5.1960   17.1430   21.8630 C.3       1 SUB1        0.145
     35 C          -4.2530   18.1990   22.4730 C.2       1 SUB1        0.260
     36 O          -4.4340   18.6540   23.6000 O.2       1 SUB1       -0.368
     37 CB         -5.5890   17.4860   20.4370 C.3       1 SUB1       -0.005
     38 CG1        -7.0590   17.8530   20.2000 C.3       1 SUB1       -0.058
     39 CG2        -4.6720   18.5350   19.8020 C.3       1 SUB1       -0.058
     40 CM         -3.5630   18.4470   20.2780 C.3       1 SUB1        0.066
     41 O          -3.1720   18.6000   21.6520 O.3       1 SUB1       -0.278
     42 H11       -14.4340   14.9661   34.5742 H         1 SUB1        0.201
     43 H21       -11.8073   14.5537   35.2861 H         1 SUB1        0.109
     44 H51       -12.2364   12.2458   35.3536 H         1 SUB1        0.031
     45 H52       -13.0220   12.2730   33.7443 H         1 SUB1        0.031
     46 H53       -11.2740   12.6294   33.8773 H         1 SUB1        0.031
     47 H61       -10.6289   15.5980   34.2633 H         1 SUB1        0.188
     48 H12       -13.6609   15.0538   36.0303 H         1 SUB1        0.201
     49 H71       -11.2702   17.5573   32.4414 H         1 SUB1        0.080
     50 H101       -9.4552   17.6637   34.0803 H         1 SUB1        0.028
     51 H102       -8.5780   16.3382   33.2549 H         1 SUB1        0.028
     52 H103       -8.7926   17.9059   32.4205 H         1 SUB1        0.028
     53 H111      -11.7719   17.5807   30.5200 H         1 SUB1        0.186
     54 H121      -10.5825   15.6778   28.5629 H         1 SUB1        0.060
     55 H131      -13.3092   16.9725   28.3772 H         1 SUB1        0.045
     56 H132      -12.5796   15.7717   27.2697 H         1 SUB1        0.045
     57 H151      -12.2103   13.3373   28.3994 H         1 SUB1        0.056
     58 H161      -14.8466   16.4167   29.8664 H         1 SUB1        0.056
     59 H171      -13.5398   11.5922   29.5984 H         1 SUB1        0.060
     60 H181      -16.1728   14.6598   31.0617 H         1 SUB1        0.060
     61 H191      -15.4891   12.2996   30.9552 H         1 SUB1        0.056
     62 H231       -7.7077   19.2969   27.8258 H         1 SUB1        0.050
     63 H232       -9.2167   19.6020   26.9148 H         1 SUB1        0.050
     64 H261       -9.1363   18.7711   24.8666 H         1 SUB1        0.188
     65 H271       -7.6799   16.2102   24.5379 H         1 SUB1        0.080
     66 H301       -9.6067   16.8981   22.4299 H         1 SUB1        0.034
     67 H311      -10.1736   14.5230   22.5661 H         1 SUB1        0.023
     68 H312       -8.4120   14.7800   22.3701 H         1 SUB1        0.023
     69 H313       -9.0637   14.3334   23.9751 H         1 SUB1        0.023
     70 H321      -11.5733   16.0494   23.6948 H         1 SUB1        0.023
     71 H322      -10.6084   16.0502   25.2037 H         1 SUB1        0.023
     72 H323      -10.9574   17.5996   24.3805 H         1 SUB1        0.023
     73 H331       -6.2629   16.0279   23.2259 H         1 SUB1        0.189
     74 H341       -4.6210   16.2069   21.8081 H         1 SUB1        0.082
     75 H371       -5.4402   16.5575   19.8663 H         1 SUB1        0.034
     76 H381       -7.2056   18.0728   19.1322 H         1 SUB1        0.023
     77 H382       -7.7065   17.0105   20.4844 H         1 SUB1        0.023
     78 H383       -7.3296   18.7292   20.8075 H         1 SUB1        0.023
     79 H391       -5.0155   18.7375   18.7768 H         1 SUB1        0.023
     80 H392       -4.7104   19.4680   20.3834 H         1 SUB1        0.023
     81 H393       -3.6352   18.1680   19.7883 H         1 SUB1        0.023
     82 H401       -4.6384   18.6593   20.1859 H         1 SUB1        0.058
     83 H402       -3.0032   19.1537   19.6478 H         1 SUB1        0.058
     84 H403       -3.3489   17.4228   19.9388 H         1 SUB1        0.058
     85 H201      -10.7550   17.5364   26.9334 H         1 SUB1        0.062
     86 H211      -11.4000   19.5876   27.7712 H         1 SUB1        0.210
     87 H221       -9.5251   18.9393   29.3478 H         1 SUB1        0.032
     88 H222       -8.8572   17.3207   28.9250 H         1 SUB1        0.032
     89 H13       -14.2620   13.6069   35.4743 H         1 SUB1        0.201
@<TRIPOS>BOND
     1    2    1 1  
     2    2    5 1  
     3    3    2 1  
     4    3    4 2  
     5    7    6 1  
     6    7   10 1  
     7    8    7 1  
     8    8    9 2  
     9    6    3 am 
    10   12   11 1  
    11   12   13 1  
    12   13   14 1  
    13   14   15 ar 
    14   14   16 ar 
    15   16   18 ar 
    16   18   19 ar 
    17   17   19 ar 
    18   15   17 ar 
    19   11    8 am 
    20   24   23 1  
    21   24   25 2  
    22   27   26 1  
    23   27   30 1  
    24   28   27 1  
    25   28   29 2  
    26   30   32 1  
    27   30   31 1  
    28   26   24 am 
    29   34   33 1  
    30   34   37 1  
    31   35   34 1  
    32   35   36 2  
    33   37   39 1  
    34   37   38 1  
    35   33   28 am 
    36   41   40 1  
    37   20   12 1  
    38   20   21 1  
    39   22   20 1  
    40    1   48 1  
    41   23   22 1  
    42   35   41 1  
    43    1   42 1  
    44    2   43 1  
    45    5   44 1  
    46    5   45 1  
    47    5   46 1  
    48    6   47 1  
    49    7   49 1  
    50   10   50 1  
    51   10   51 1  
    52   10   52 1  
    53   11   53 1  
    54   12   54 1  
    55   13   55 1  
    56   13   56 1  
    57   15   57 1  
    58   16   58 1  
    59   17   59 1  
    60   18   60 1  
    61   19   61 1  
    62   23   62 1  
    63   23   63 1  
    64   26   64 1  
    65   27   65 1  
    66   30   66 1  
    67   31   67 1  
    68   31   68 1  
    69   31   69 1  
    70   32   70 1  
    71   32   71 1  
    72   32   72 1  
    73   33   73 1  
    74   34   74 1  
    75   37   75 1  
    76   38   76 1  
    77   38   77 1  
    78   38   78 1  
    79   39   79 1  
    80   39   80 1  
    81   39   81 1  
    82   40   82 1  
    83   40   83 1  
    84   40   84 1  
    85   20   85 1  
    86   21   86 1  
    87   22   87 1  
    88   22   88 1  
    89    1   89 1  
@<TRIPOS>SUBSTRUCTURE
     1 SUB1        1 GROUP

