1heg_ligand
  -I-interpret- 

 89 89  0  0  0  0  0  0  0  0999 V2000
  -13.8230   14.4740   35.2070 N   0  3  0  0  0
  -12.5640   14.2090   34.5660 C   0  0  0  0  0
  -12.3220   15.0960   33.3430 C   0  0  0  0  0
  -13.0380   15.2390   32.3750 O   0  0  0  0  0
  -12.2500   12.7420   34.3720 C   0  0  0  0  0
  -11.1640   15.7690   33.4360 N   0  0  0  0  0
  -10.5980   16.6900   32.5180 C   0  0  0  0  0
  -10.5140   16.1130   31.1200 C   0  0  0  0  0
   -9.8530   15.1410   30.7800 O   0  0  0  0  0
   -9.2620   17.1870   33.1080 C   0  0  0  0  0
  -11.2340   16.8020   30.1970 N   0  0  0  0  0
  -11.2840   16.4970   28.7790 C   0  0  0  0  0
  -12.6700   16.0790   28.3220 C   0  0  0  0  0
  -13.4320   14.9710   29.0480 C   0  0  0  0  0
  -13.0760   13.6290   28.9830 C   0  0  0  0  0
  -14.5600   15.3730   29.8070 C   0  0  0  0  0
  -13.8180   12.6380   29.6610 C   0  0  0  0  0
  -15.3000   14.3800   30.4830 C   0  0  0  0  0
  -14.9170   13.0430   30.4120 C   0  0  0  0  0
  -10.8180   17.7530   28.0100 C   0  0  0  0  0
  -11.6970   18.8220   28.2490 O   0  0  0  0  0
   -9.4050   18.1960   28.5460 C   0  0  0  0  0
   -8.6050   18.8260   27.3980 C   0  0  0  0  0
   -8.1830   17.8170   26.3600 C   0  0  0  0  0
   -7.4700   16.8490   26.6960 O   0  0  0  0  0
   -8.5850   17.9710   25.1030 N   0  0  0  0  0
   -8.2530   17.0230   24.0680 C   0  0  0  0  0
   -7.3120   17.7050   23.0540 C   0  0  0  0  0
   -7.5440   18.7990   22.5960 O   0  0  0  0  0
   -9.4570   16.3770   23.3870 C   0  0  0  0  0
   -9.2640   14.9020   23.0550 C   0  0  0  0  0
  -10.7390   16.5330   24.2240 C   0  0  0  0  0
   -6.2770   16.9100   22.7550 N   0  0  0  0  0
   -5.1960   17.1430   21.8630 C   0  0  0  0  0
   -4.2530   18.1990   22.4730 C   0  0  0  0  0
   -4.4340   18.6540   23.6000 O   0  0  0  0  0
   -5.5890   17.4860   20.4370 C   0  0  0  0  0
   -7.0590   17.8530   20.2000 C   0  0  0  0  0
   -4.6720   18.5350   19.8020 C   0  0  0  0  0
   -3.5630   18.4470   20.2780 C   0  0  0  0  0
   -3.1720   18.6000   21.6520 O   0  0  0  0  0
  -14.4340   14.9661   34.5742 H   0  0  0  0  0
  -11.8073   14.5537   35.2861 H   0  0  0  0  0
  -12.2364   12.2458   35.3536 H   0  0  0  0  0
  -13.0220   12.2730   33.7443 H   0  0  0  0  0
  -11.2740   12.6294   33.8773 H   0  0  0  0  0
  -10.6289   15.5980   34.2633 H   0  0  0  0  0
  -13.6609   15.0538   36.0303 H   0  0  0  0  0
  -11.2702   17.5573   32.4414 H   0  0  0  0  0
   -9.4552   17.6637   34.0803 H   0  0  0  0  0
   -8.5780   16.3382   33.2549 H   0  0  0  0  0
   -8.7926   17.9059   32.4205 H   0  0  0  0  0
  -11.7719   17.5807   30.5200 H   0  0  0  0  0
  -10.5825   15.6778   28.5629 H   0  0  0  0  0
  -13.3092   16.9725   28.3772 H   0  0  0  0  0
  -12.5796   15.7717   27.2697 H   0  0  0  0  0
  -12.2103   13.3373   28.3994 H   0  0  0  0  0
  -14.8466   16.4167   29.8664 H   0  0  0  0  0
  -13.5398   11.5922   29.5984 H   0  0  0  0  0
  -16.1728   14.6598   31.0617 H   0  0  0  0  0
  -15.4891   12.2996   30.9552 H   0  0  0  0  0
   -7.7077   19.2969   27.8258 H   0  0  0  0  0
   -9.2167   19.6020   26.9148 H   0  0  0  0  0
   -9.1363   18.7711   24.8666 H   0  0  0  0  0
   -7.6799   16.2102   24.5379 H   0  0  0  0  0
   -9.6067   16.8981   22.4299 H   0  0  0  0  0
  -10.1736   14.5230   22.5661 H   0  0  0  0  0
   -8.4120   14.7800   22.3701 H   0  0  0  0  0
   -9.0637   14.3334   23.9751 H   0  0  0  0  0
  -11.5733   16.0494   23.6948 H   0  0  0  0  0
  -10.6084   16.0502   25.2037 H   0  0  0  0  0
  -10.9574   17.5996   24.3805 H   0  0  0  0  0
   -6.2629   16.0279   23.2259 H   0  0  0  0  0
   -4.6210   16.2069   21.8081 H   0  0  0  0  0
   -5.4402   16.5575   19.8663 H   0  0  0  0  0
   -7.2056   18.0728   19.1322 H   0  0  0  0  0
   -7.7065   17.0105   20.4844 H   0  0  0  0  0
   -7.3296   18.7292   20.8075 H   0  0  0  0  0
   -5.0155   18.7375   18.7768 H   0  0  0  0  0
   -4.7104   19.4680   20.3834 H   0  0  0  0  0
   -3.6352   18.1680   19.7883 H   0  0  0  0  0
   -4.6384   18.6593   20.1859 H   0  0  0  0  0
   -3.0032   19.1537   19.6478 H   0  0  0  0  0
   -3.3489   17.4228   19.9388 H   0  0  0  0  0
  -10.7550   17.5364   26.9334 H   0  0  0  0  0
  -11.4000   19.5876   27.7712 H   0  0  0  0  0
   -9.5251   18.9393   29.3478 H   0  0  0  0  0
   -8.8572   17.3207   28.9250 H   0  0  0  0  0
  -14.2620   13.6069   35.4743 H   0  0  0  0  0
  2  1  1  0  0  0
  2  5  1  0  0  0
  3  2  1  0  0  0
  3  4  2  0  0  0
  7  6  1  0  0  0
  7 10  1  0  0  0
  8  7  1  0  0  0
  8  9  2  0  0  0
  6  3  1  0  0  0
 12 11  1  0  0  0
 12 13  1  0  0  0
 13 14  1  0  0  0
 14 15  4  0  0  0
 14 16  4  0  0  0
 16 18  4  0  0  0
 18 19  4  0  0  0
 17 19  4  0  0  0
 15 17  4  0  0  0
 11  8  1  0  0  0
 24 23  1  0  0  0
 24 25  2  0  0  0
 27 26  1  0  0  0
 27 30  1  0  0  0
 28 27  1  0  0  0
 28 29  2  0  0  0
 30 32  1  0  0  0
 30 31  1  0  0  0
 26 24  1  0  0  0
 34 33  1  0  0  0
 34 37  1  0  0  0
 35 34  1  0  0  0
 35 36  2  0  0  0
 37 39  1  0  0  0
 37 38  1  0  0  0
 33 28  1  0  0  0
 41 40  1  0  0  0
 20 12  1  0  0  0
 20 21  1  0  0  0
 22 20  1  0  0  0
  1 48  1  0  0  0
 23 22  1  0  0  0
 35 41  1  0  0  0
  1 42  1  0  0  0
  2 43  1  0  0  0
  5 44  1  0  0  0
  5 45  1  0  0  0
  5 46  1  0  0  0
  6 47  1  0  0  0
  7 49  1  0  0  0
 10 50  1  0  0  0
 10 51  1  0  0  0
 10 52  1  0  0  0
 11 53  1  0  0  0
 12 54  1  0  0  0
 13 55  1  0  0  0
 13 56  1  0  0  0
 15 57  1  0  0  0
 16 58  1  0  0  0
 17 59  1  0  0  0
 18 60  1  0  0  0
 19 61  1  0  0  0
 23 62  1  0  0  0
 23 63  1  0  0  0
 26 64  1  0  0  0
 27 65  1  0  0  0
 30 66  1  0  0  0
 31 67  1  0  0  0
 31 68  1  0  0  0
 31 69  1  0  0  0
 32 70  1  0  0  0
 32 71  1  0  0  0
 32 72  1  0  0  0
 33 73  1  0  0  0
 34 74  1  0  0  0
 37 75  1  0  0  0
 38 76  1  0  0  0
 38 77  1  0  0  0
 38 78  1  0  0  0
 39 79  1  0  0  0
 39 80  1  0  0  0
 39 81  1  0  0  0
 40 82  1  0  0  0
 40 83  1  0  0  0
 40 84  1  0  0  0
 20 85  1  0  0  0
 21 86  1  0  0  0
 22 87  1  0  0  0
 22 88  1  0  0  0
  1 89  1  0  0  0
M  END
$$$$
