### 
### Created by X-TOOL on Mon Oct 24 22:27:26 2005
### 

@<TRIPOS>MOLECULE
1oyt_ligand
   54    58     1     0     0
SMALL
GAST_HUCK


@<TRIPOS>ATOM
      1 O21        16.6950  -12.8160   22.7290 O.2       1 SUB1       -0.385
      2 C20        17.4090  -12.5450   21.7800 C.2       1 SUB1        0.218
      3 N19        18.5310  -13.3290   21.4300 N.am      1 SUB1       -0.174
      4 C23        18.8670  -14.5430   22.1730 C.3       1 SUB1        0.090
      5 C24        19.7880  -14.2110   23.3150 C.ar      1 SUB1       -0.020
      6 C32        19.2510  -14.0800   24.6100 C.ar      1 SUB1       -0.060
      7 C31        20.1060  -13.8060   25.6770 C.ar      1 SUB1       -0.035
      8 C30        21.4750  -13.6670   25.4130 C.ar      1 SUB1        0.125
      9 F29        22.2470  -13.4240   26.4870 F         1 SUB1       -0.189
     10 C26        22.0580  -13.7740   24.1420 C.ar      1 SUB1       -0.035
     11 C25        21.1740  -14.0520   23.0690 C.ar      1 SUB1       -0.060
     12 C17        19.0640  -12.9060   20.1780 C.2       1 SUB1        0.216
     13 O18        20.0420  -13.3920   19.6320 O.2       1 SUB1       -0.385
     14 C16        18.2450  -11.8120   19.6630 C.3       1 SUB1        0.093
     15 C15        17.2170  -12.1980   18.6000 C.3       1 SUB1        0.036
     16 N11        15.7990  -12.4400   19.1400 N.3       1 SUB1       -0.280
     17 C12        14.9690  -11.9970   17.9830 C.3       1 SUB1        0.002
     18 C13        15.8910  -12.1930   16.7360 C.3       1 SUB1       -0.038
     19 C14        17.2510  -11.6720   17.2230 C.3       1 SUB1       -0.033
     20 C10        15.8630  -11.3370   20.1940 C.3       1 SUB1        0.067
     21 C7         14.6700  -11.2040   21.0920 C.ar      1 SUB1       -0.023
     22 C8         13.9280  -12.3500   21.3610 C.ar      1 SUB1       -0.054
     23 C9         12.8510  -12.2910   22.2350 C.ar      1 SUB1       -0.014
     24 C4         12.5240  -11.0440   22.8370 C.ar      1 SUB1        0.179
     25 C5         13.2700   -9.8900   22.5730 C.ar      1 SUB1       -0.014
     26 C6         14.3560   -9.9610   21.6950 C.ar      1 SUB1       -0.054
     27 C3         11.3830  -11.0010   23.7370 C.cat     1 SUB1        0.312
     28 N1         10.5520  -12.0640   23.8870 N.pl3     1 SUB1       -0.201
     29 N2         11.0790   -9.9100   24.4850 N.pl3     1 SUB1       -0.201
     30 C22        17.2470  -11.4430   20.8070 C.3       1 SUB1        0.101
     31 H41        17.9498  -14.9947   22.5787 H         1 SUB1        0.073
     32 H42        19.3735  -15.2567   21.5067 H         1 SUB1        0.073
     33 H61        18.1855  -14.1908   24.7756 H         1 SUB1        0.055
     34 H71        19.7212  -13.7031   26.6852 H         1 SUB1        0.059
     35 H101       23.1240  -13.6511   23.9887 H         1 SUB1        0.059
     36 H111       21.5589  -14.1429   22.0597 H         1 SUB1        0.055
     37 H141       18.8756  -10.9683   19.3463 H         1 SUB1        0.059
     38 H151       17.5469  -13.2265   18.3917 H         1 SUB1        0.049
     39 H171       14.0657  -12.6171   17.8858 H         1 SUB1        0.043
     40 H172       14.6881  -10.9381   18.0821 H         1 SUB1        0.043
     41 H181       15.9642  -13.2538   16.4545 H         1 SUB1        0.028
     42 H182       15.5371  -11.6011   15.8790 H         1 SUB1        0.028
     43 H191       17.2943  -10.5732   17.1958 H         1 SUB1        0.028
     44 H192       18.0783  -12.0946   16.6340 H         1 SUB1        0.028
     45 H201       15.8778  -10.3858   19.6419 H         1 SUB1        0.065
     46 H221       14.1910  -13.2892   20.8879 H         1 SUB1        0.056
     47 H231       12.2696  -13.1791   22.4549 H         1 SUB1        0.065
     48 H251       13.0085   -8.9497   23.0447 H         1 SUB1        0.065
     49 H261       14.9482   -9.0791   21.4792 H         1 SUB1        0.056
     50 H281        9.7512  -12.0047   24.5321 H         1 SUB1        0.192
     51 H282       10.7223  -12.9298   23.3557 H         1 SUB1        0.192
     52 H291       11.6644   -9.0647   24.4245 H         1 SUB1        0.192
     53 H292       10.2629   -9.9274   25.1131 H         1 SUB1        0.192
     54 H301       17.4965  -10.4787   21.2737 H         1 SUB1        0.061
@<TRIPOS>BOND
     1    1    2 2  
     2    2    3 am 
     3    2   30 1  
     4    3    4 1  
     5    3   12 am 
     6    4    5 1  
     7    5    6 ar 
     8    5   11 ar 
     9    6    7 ar 
    10    7    8 ar 
    11    8    9 1  
    12    8   10 ar 
    13   10   11 ar 
    14   12   13 2  
    15   12   14 1  
    16   14   15 1  
    17   14   30 1  
    18   15   16 1  
    19   15   19 1  
    20   16   17 1  
    21   16   20 1  
    22   17   18 1  
    23   18   19 1  
    24   20   21 1  
    25   20   30 1  
    26   21   22 ar 
    27   21   26 ar 
    28   22   23 ar 
    29   23   24 ar 
    30   24   25 ar 
    31   24   27 1  
    32   25   26 ar 
    33   27   28 1  
    34   27   29 1  
    35    4   31 1  
    36    4   32 1  
    37    6   33 1  
    38    7   34 1  
    39   10   35 1  
    40   11   36 1  
    41   14   37 1  
    42   15   38 1  
    43   17   39 1  
    44   17   40 1  
    45   18   41 1  
    46   18   42 1  
    47   19   43 1  
    48   19   44 1  
    49   20   45 1  
    50   22   46 1  
    51   23   47 1  
    52   25   48 1  
    53   26   49 1  
    54   28   50 1  
    55   28   51 1  
    56   29   52 1  
    57   29   53 1  
    58   30   54 1  
@<TRIPOS>SUBSTRUCTURE
     1 SUB1        1 GROUP

