1oyt_ligand
  -I-interpret- 

 54 58  0  0  0  0  0  0  0  0999 V2000
   16.6950  -12.8160   22.7290 O   0  0  0  0  0
   17.4090  -12.5450   21.7800 C   0  0  0  0  0
   18.5310  -13.3290   21.4300 N   0  0  0  0  0
   18.8670  -14.5430   22.1730 C   0  0  0  0  0
   19.7880  -14.2110   23.3150 C   0  0  0  0  0
   19.2510  -14.0800   24.6100 C   0  0  0  0  0
   20.1060  -13.8060   25.6770 C   0  0  0  0  0
   21.4750  -13.6670   25.4130 C   0  0  0  0  0
   22.2470  -13.4240   26.4870 F   0  0  0  0  0
   22.0580  -13.7740   24.1420 C   0  0  0  0  0
   21.1740  -14.0520   23.0690 C   0  0  0  0  0
   19.0640  -12.9060   20.1780 C   0  0  0  0  0
   20.0420  -13.3920   19.6320 O   0  0  0  0  0
   18.2450  -11.8120   19.6630 C   0  0  0  0  0
   17.2170  -12.1980   18.6000 C   0  0  0  0  0
   15.7990  -12.4400   19.1400 N   0  0  0  0  0
   14.9690  -11.9970   17.9830 C   0  0  0  0  0
   15.8910  -12.1930   16.7360 C   0  0  0  0  0
   17.2510  -11.6720   17.2230 C   0  0  0  0  0
   15.8630  -11.3370   20.1940 C   0  0  0  0  0
   14.6700  -11.2040   21.0920 C   0  0  0  0  0
   13.9280  -12.3500   21.3610 C   0  0  0  0  0
   12.8510  -12.2910   22.2350 C   0  0  0  0  0
   12.5240  -11.0440   22.8370 C   0  0  0  0  0
   13.2700   -9.8900   22.5730 C   0  0  0  0  0
   14.3560   -9.9610   21.6950 C   0  0  0  0  0
   11.3830  -11.0010   23.7370 C   0  3  0  0  0
   10.5520  -12.0640   23.8870 N   0  0  0  0  0
   11.0790   -9.9100   24.4850 N   0  0  0  0  0
   17.2470  -11.4430   20.8070 C   0  0  0  0  0
   17.9498  -14.9947   22.5787 H   0  0  0  0  0
   19.3735  -15.2567   21.5067 H   0  0  0  0  0
   18.1855  -14.1908   24.7756 H   0  0  0  0  0
   19.7212  -13.7031   26.6852 H   0  0  0  0  0
   23.1240  -13.6511   23.9887 H   0  0  0  0  0
   21.5589  -14.1429   22.0597 H   0  0  0  0  0
   18.8756  -10.9683   19.3463 H   0  0  0  0  0
   17.5469  -13.2265   18.3917 H   0  0  0  0  0
   14.0657  -12.6171   17.8858 H   0  0  0  0  0
   14.6881  -10.9381   18.0821 H   0  0  0  0  0
   15.9642  -13.2538   16.4545 H   0  0  0  0  0
   15.5371  -11.6011   15.8790 H   0  0  0  0  0
   17.2943  -10.5732   17.1958 H   0  0  0  0  0
   18.0783  -12.0946   16.6340 H   0  0  0  0  0
   15.8778  -10.3858   19.6419 H   0  0  0  0  0
   14.1910  -13.2892   20.8879 H   0  0  0  0  0
   12.2696  -13.1791   22.4549 H   0  0  0  0  0
   13.0085   -8.9497   23.0447 H   0  0  0  0  0
   14.9482   -9.0791   21.4792 H   0  0  0  0  0
    9.7512  -12.0047   24.5321 H   0  0  0  0  0
   10.7223  -12.9298   23.3557 H   0  0  0  0  0
   11.6644   -9.0647   24.4245 H   0  0  0  0  0
   10.2629   -9.9274   25.1131 H   0  0  0  0  0
   17.4965  -10.4787   21.2737 H   0  0  0  0  0
  1  2  2  0  0  0
  2  3  1  0  0  0
  2 30  1  0  0  0
  3  4  1  0  0  0
  3 12  1  0  0  0
  4  5  1  0  0  0
  5  6  4  0  0  0
  5 11  4  0  0  0
  6  7  4  0  0  0
  7  8  4  0  0  0
  8  9  1  0  0  0
  8 10  4  0  0  0
 10 11  4  0  0  0
 12 13  2  0  0  0
 12 14  1  0  0  0
 14 15  1  0  0  0
 14 30  1  0  0  0
 15 16  1  0  0  0
 15 19  1  0  0  0
 16 17  1  0  0  0
 16 20  1  0  0  0
 17 18  1  0  0  0
 18 19  1  0  0  0
 20 21  1  0  0  0
 20 30  1  0  0  0
 21 22  4  0  0  0
 21 26  4  0  0  0
 22 23  4  0  0  0
 23 24  4  0  0  0
 24 25  4  0  0  0
 24 27  1  0  0  0
 25 26  4  0  0  0
 27 28  1  0  0  0
 27 29  1  0  0  0
  4 31  1  0  0  0
  4 32  1  0  0  0
  6 33  1  0  0  0
  7 34  1  0  0  0
 10 35  1  0  0  0
 11 36  1  0  0  0
 14 37  1  0  0  0
 15 38  1  0  0  0
 17 39  1  0  0  0
 17 40  1  0  0  0
 18 41  1  0  0  0
 18 42  1  0  0  0
 19 43  1  0  0  0
 19 44  1  0  0  0
 20 45  1  0  0  0
 22 46  1  0  0  0
 23 47  1  0  0  0
 25 48  1  0  0  0
 26 49  1  0  0  0
 28 50  1  0  0  0
 28 51  1  0  0  0
 29 52  1  0  0  0
 29 53  1  0  0  0
 30 54  1  0  0  0
M  END
$$$$
