### 
### Created by X-TOOL on Tue Oct 25 00:05:40 2005
### 

@<TRIPOS>MOLECULE
1j17_ligand
   61    65     1     0     0
SMALL
GAST_HUCK


@<TRIPOS>ATOM
      1 H71        19.0900   51.1565   62.2581 H         1 SUB1        0.078
      2 H81        16.9453   50.2714   63.1776 H         1 SUB1        0.061
      3 H91        15.6823   49.3357   59.1553 H         1 SUB1        0.061
      4 H101       17.8438   50.2518   58.3235 H         1 SUB1        0.078
      5 H131       15.2920   50.1085   63.6358 H         1 SUB1        0.049
      6 N1         18.5550   50.7460   60.2510 N.ar      1 SUB1       -0.316
      7 C2         18.3350   50.7600   61.5890 C.ar      1 SUB1       -0.004
      8 C3         17.1270   50.2600   62.1090 C.ar      1 SUB1       -0.020
      9 C5         16.4120   49.7340   59.8510 C.ar      1 SUB1       -0.020
     10 C6         17.6340   50.2500   59.3870 C.ar      1 SUB1       -0.004
     11 C4         16.1530   49.7430   61.2260 C.ar      1 SUB1        0.049
     12 N7         14.9290   49.2200   61.7440 N.3       1 SUB1       -0.243
     13 C8         14.5110   49.5150   63.1380 C.3       1 SUB1        0.023
     14 C9         13.1890   50.3120   63.1290 C.3       1 SUB1       -0.016
     15 C11        12.5410   49.2560   60.9340 C.3       1 SUB1       -0.016
     16 C12        13.9240   48.5390   60.8740 C.3       1 SUB1        0.023
     17 C10        12.0790   49.4920   62.4130 C.3       1 SUB1        0.052
     18 C13        10.7440   50.2250   62.4430 C.2       1 SUB1        0.182
     19 O23        10.8350   51.4570   62.5380 O.2       1 SUB1       -0.397
     20 N14         9.5510   49.6290   62.3760 N.am      1 SUB1       -0.270
     21 C15         9.3600   48.1550   62.2660 C.3       1 SUB1        0.051
     22 C16         8.4700   47.8600   61.0290 C.3       1 SUB1        0.050
     23 C18         7.5060   50.1330   61.1170 C.3       1 SUB1        0.050
     24 C19         8.3110   50.4480   62.4030 C.3       1 SUB1        0.051
     25 N17         7.2310   48.6760   61.0880 N.am      1 SUB1       -0.230
     26 S20         6.1600   48.2550   59.9220 S.o2      1 SUB1        0.071
     27 O21         4.9890   49.1080   60.0410 O.2       1 SUB1       -0.150
     28 O22         5.9200   46.8530   60.0990 O.2       1 SUB1       -0.150
     29 C24         6.8680   48.4890   58.2970 C.ar      1 SUB1        0.109
     30 C25         6.8400   49.7590   57.6620 C.ar      1 SUB1       -0.027
     31 C33         7.4910   47.4070   57.6470 C.ar      1 SUB1       -0.034
     32 C34         8.0580   47.5740   56.3770 C.ar      1 SUB1       -0.052
     33 C26         7.4140   49.9340   56.3820 C.ar      1 SUB1       -0.016
     34 C27         8.0160   48.8260   55.7420 C.ar      1 SUB1       -0.017
     35 C28         8.5800   48.9810   54.4930 C.ar      1 SUB1       -0.040
     36 C30         7.9500   51.3360   54.4560 C.ar      1 SUB1       -0.047
     37 C31         7.3800   51.1910   55.7290 C.ar      1 SUB1       -0.054
     38 C29         8.5570   50.2170   53.8420 C.ar      1 SUB1        0.041
     39 CL32        9.3320   50.3470   52.2770 Cl        1 SUB1       -0.070
     40 H132       14.3646   48.5709   63.6831 H         1 SUB1        0.049
     41 H141       13.3403   51.2627   62.5967 H         1 SUB1        0.031
     42 H142       12.8799   50.5168   64.1646 H         1 SUB1        0.031
     43 H151       12.6201   50.2279   60.4250 H         1 SUB1        0.031
     44 H152       11.7932   48.6333   60.4211 H         1 SUB1        0.031
     45 H161       13.8032   47.4995   61.2128 H         1 SUB1        0.049
     46 H162       14.2862   48.5464   59.8354 H         1 SUB1        0.049
     47 H171       11.9607   48.5223   62.9187 H         1 SUB1        0.054
     48 H211        8.8685   47.7765   63.1744 H         1 SUB1        0.054
     49 H212       10.3364   47.6631   62.1453 H         1 SUB1        0.054
     50 H221        8.2031   46.7929   61.0185 H         1 SUB1        0.050
     51 H222        9.0260   48.1079   60.1128 H         1 SUB1        0.050
     52 H231        6.5580   50.6908   61.1251 H         1 SUB1        0.050
     53 H232        8.0922   50.4191   60.2313 H         1 SUB1        0.050
     54 H241        8.5692   51.5169   62.4301 H         1 SUB1        0.054
     55 H242        7.7132   50.1925   63.2904 H         1 SUB1        0.054
     56 H301        6.3750   50.6006   58.1626 H         1 SUB1        0.064
     57 H311        7.5323   46.4385   58.1322 H         1 SUB1        0.064
     58 H321        8.5311   46.7335   55.8823 H         1 SUB1        0.062
     59 H351        9.0481   48.1313   54.0093 H         1 SUB1        0.063
     60 H361        7.9254   52.2940   53.9494 H         1 SUB1        0.062
     61 H371        6.9132   52.0409   56.2136 H         1 SUB1        0.062
@<TRIPOS>BOND
     1    7    1 1  
     2    8    2 1  
     3    9    3 1  
     4   10    4 1  
     5    6   10 ar 
     6    7    6 ar 
     7    8    7 ar 
     8   11    8 ar 
     9   11    9 ar 
    10   11   12 1  
    11   12   16 1  
    12   12   13 1  
    13   13   14 1  
    14   14   17 1  
    15   17   15 1  
    16   17   18 1  
    17   18   20 am 
    18   18   19 2  
    19   20   24 1  
    20   20   21 1  
    21   21   22 1  
    22   22   25 1  
    23   25   23 1  
    24   25   26 1  
    25   26   29 1  
    26   26   28 2  
    27   26   27 2  
    28   29   31 ar 
    29   29   30 ar 
    30   30   33 ar 
    31   33   37 ar 
    32   33   34 ar 
    33   34   35 ar 
    34   34   32 ar 
    35   32   31 ar 
    36   35   38 ar 
    37   38   36 ar 
    38   36   37 ar 
    39   23   24 1  
    40   15   16 1  
    41    9   10 ar 
    42   38   39 1  
    43   13    5 1  
    44   13   40 1  
    45   14   41 1  
    46   14   42 1  
    47   15   43 1  
    48   15   44 1  
    49   16   45 1  
    50   16   46 1  
    51   17   47 1  
    52   21   48 1  
    53   21   49 1  
    54   22   50 1  
    55   22   51 1  
    56   23   52 1  
    57   23   53 1  
    58   24   54 1  
    59   24   55 1  
    60   30   56 1  
    61   31   57 1  
    62   32   58 1  
    63   35   59 1  
    64   36   60 1  
    65   37   61 1  
@<TRIPOS>SUBSTRUCTURE
     1 SUB1        1 GROUP

