1j17_ligand
  -I-interpret- 

 61 65  0  0  0  0  0  0  0  0999 V2000
   19.0900   51.1565   62.2581 H   0  0  0  0  0
   16.9453   50.2714   63.1776 H   0  0  0  0  0
   15.6823   49.3357   59.1553 H   0  0  0  0  0
   17.8438   50.2518   58.3235 H   0  0  0  0  0
   15.2920   50.1085   63.6358 H   0  0  0  0  0
   18.5550   50.7460   60.2510 N   0  0  0  0  0
   18.3350   50.7600   61.5890 C   0  0  0  0  0
   17.1270   50.2600   62.1090 C   0  0  0  0  0
   16.4120   49.7340   59.8510 C   0  0  0  0  0
   17.6340   50.2500   59.3870 C   0  0  0  0  0
   16.1530   49.7430   61.2260 C   0  0  0  0  0
   14.9290   49.2200   61.7440 N   0  0  0  0  0
   14.5110   49.5150   63.1380 C   0  0  0  0  0
   13.1890   50.3120   63.1290 C   0  0  0  0  0
   12.5410   49.2560   60.9340 C   0  0  0  0  0
   13.9240   48.5390   60.8740 C   0  0  0  0  0
   12.0790   49.4920   62.4130 C   0  0  0  0  0
   10.7440   50.2250   62.4430 C   0  0  0  0  0
   10.8350   51.4570   62.5380 O   0  0  0  0  0
    9.5510   49.6290   62.3760 N   0  0  0  0  0
    9.3600   48.1550   62.2660 C   0  0  0  0  0
    8.4700   47.8600   61.0290 C   0  0  0  0  0
    7.5060   50.1330   61.1170 C   0  0  0  0  0
    8.3110   50.4480   62.4030 C   0  0  0  0  0
    7.2310   48.6760   61.0880 N   0  0  0  0  0
    6.1600   48.2550   59.9220 S   0  0  0  0  0
    4.9890   49.1080   60.0410 O   0  0  0  0  0
    5.9200   46.8530   60.0990 O   0  0  0  0  0
    6.8680   48.4890   58.2970 C   0  0  0  0  0
    6.8400   49.7590   57.6620 C   0  0  0  0  0
    7.4910   47.4070   57.6470 C   0  0  0  0  0
    8.0580   47.5740   56.3770 C   0  0  0  0  0
    7.4140   49.9340   56.3820 C   0  0  0  0  0
    8.0160   48.8260   55.7420 C   0  0  0  0  0
    8.5800   48.9810   54.4930 C   0  0  0  0  0
    7.9500   51.3360   54.4560 C   0  0  0  0  0
    7.3800   51.1910   55.7290 C   0  0  0  0  0
    8.5570   50.2170   53.8420 C   0  0  0  0  0
    9.3320   50.3470   52.2770 Cl  0  0  0  0  0
   14.3646   48.5709   63.6831 H   0  0  0  0  0
   13.3403   51.2627   62.5967 H   0  0  0  0  0
   12.8799   50.5168   64.1646 H   0  0  0  0  0
   12.6201   50.2279   60.4250 H   0  0  0  0  0
   11.7932   48.6333   60.4211 H   0  0  0  0  0
   13.8032   47.4995   61.2128 H   0  0  0  0  0
   14.2862   48.5464   59.8354 H   0  0  0  0  0
   11.9607   48.5223   62.9187 H   0  0  0  0  0
    8.8685   47.7765   63.1744 H   0  0  0  0  0
   10.3364   47.6631   62.1453 H   0  0  0  0  0
    8.2031   46.7929   61.0185 H   0  0  0  0  0
    9.0260   48.1079   60.1128 H   0  0  0  0  0
    6.5580   50.6908   61.1251 H   0  0  0  0  0
    8.0922   50.4191   60.2313 H   0  0  0  0  0
    8.5692   51.5169   62.4301 H   0  0  0  0  0
    7.7132   50.1925   63.2904 H   0  0  0  0  0
    6.3750   50.6006   58.1626 H   0  0  0  0  0
    7.5323   46.4385   58.1322 H   0  0  0  0  0
    8.5311   46.7335   55.8823 H   0  0  0  0  0
    9.0481   48.1313   54.0093 H   0  0  0  0  0
    7.9254   52.2940   53.9494 H   0  0  0  0  0
    6.9132   52.0409   56.2136 H   0  0  0  0  0
  7  1  1  0  0  0
  8  2  1  0  0  0
  9  3  1  0  0  0
 10  4  1  0  0  0
  6 10  4  0  0  0
  7  6  4  0  0  0
  8  7  4  0  0  0
 11  8  4  0  0  0
 11  9  4  0  0  0
 11 12  1  0  0  0
 12 16  1  0  0  0
 12 13  1  0  0  0
 13 14  1  0  0  0
 14 17  1  0  0  0
 17 15  1  0  0  0
 17 18  1  0  0  0
 18 20  1  0  0  0
 18 19  2  0  0  0
 20 24  1  0  0  0
 20 21  1  0  0  0
 21 22  1  0  0  0
 22 25  1  0  0  0
 25 23  1  0  0  0
 25 26  1  0  0  0
 26 29  1  0  0  0
 26 28  2  0  0  0
 26 27  2  0  0  0
 29 31  4  0  0  0
 29 30  4  0  0  0
 30 33  4  0  0  0
 33 37  4  0  0  0
 33 34  4  0  0  0
 34 35  4  0  0  0
 34 32  4  0  0  0
 32 31  4  0  0  0
 35 38  4  0  0  0
 38 36  4  0  0  0
 36 37  4  0  0  0
 23 24  1  0  0  0
 15 16  1  0  0  0
  9 10  4  0  0  0
 38 39  1  0  0  0
 13  5  1  0  0  0
 13 40  1  0  0  0
 14 41  1  0  0  0
 14 42  1  0  0  0
 15 43  1  0  0  0
 15 44  1  0  0  0
 16 45  1  0  0  0
 16 46  1  0  0  0
 17 47  1  0  0  0
 21 48  1  0  0  0
 21 49  1  0  0  0
 22 50  1  0  0  0
 22 51  1  0  0  0
 23 52  1  0  0  0
 23 53  1  0  0  0
 24 54  1  0  0  0
 24 55  1  0  0  0
 30 56  1  0  0  0
 31 57  1  0  0  0
 32 58  1  0  0  0
 35 59  1  0  0  0
 36 60  1  0  0  0
 37 61  1  0  0  0
M  END
$$$$
