1rgk_ligand
  -I-interpret- 

 35 37  0  0  0  0  0  0  0  0999 V2000
   24.9809   12.5622   -1.2065 H   0  0  0  0  0
   25.2063   14.0815   -2.9546 H   0  0  0  0  0
   24.5102   15.3135   -1.8481 H   0  0  0  0  0
   22.9860   14.0311   -3.5679 H   0  0  0  0  0
   22.3324   15.3840   -1.1953 H   0  0  0  0  0
   20.2224   15.1466   -2.1125 H   0  0  0  0  0
   22.2642   13.3178    0.1695 H   0  0  0  0  0
   20.9128   12.1489   -2.3530 H   0  0  0  0  0
   23.0645   11.4550    0.6743 H   0  0  0  0  0
   21.2698    5.5074    0.4078 H   0  0  0  0  0
   22.1865    6.7428    1.3113 H   0  0  0  0  0
   19.5177    7.6669   -3.1678 H   0  0  0  0  0
   19.7920   13.7520    1.2250 P   0  0  0  0  0
   20.8270   14.5940    1.8960 O   0  0  0  0  0
   19.7170   12.3620    1.7990 O   0  5  0  0  0
   18.4580   14.4390    1.1070 O   0  5  0  0  0
   24.9700   13.4850   -0.9810 O   0  0  0  0  0
   24.5220   14.2450   -2.1090 C   0  0  0  0  0
   23.1270   13.8080   -2.5000 C   0  0  0  0  0
   22.9760   12.3730   -2.2650 O   0  0  0  0  0
   22.0030   14.4660   -1.7040 C   0  0  0  0  0
   20.9330   14.7360   -2.5910 O   0  0  0  0  0
   21.5990   13.3690   -0.7050 C   0  0  0  0  0
   20.2570   13.5510   -0.2960 O   0  0  0  0  0
   21.7400   12.1560   -1.6280 C   0  0  0  0  0
   21.8020   10.8520   -0.9780 N   0  0  0  0  0
   22.5210   10.6580    0.1690 C   0  0  0  0  0
   22.4930    9.4040    0.6080 N   0  0  0  0  0
   21.6930    8.7420   -0.3220 C   0  0  0  0  0
   21.2660    7.3980   -0.4120 C   0  0  0  0  0
   21.6000    6.4780    0.5070 N   0  0  0  0  0
   20.4860    7.0540   -1.4610 N   0  0  0  0  0
   20.1470    7.9990   -2.3500 C   0  0  0  0  0
   20.4790    9.2980   -2.3670 N   0  0  0  0  0
   21.2690    9.6090   -1.3200 C   0  0  0  0  0
 17  1  1  0  0  0
 18  2  1  0  0  0
 18  3  1  0  0  0
 19  4  1  0  0  0
 21  5  1  0  0  0
 22  6  1  0  0  0
 23  7  1  0  0  0
 25  8  1  0  0  0
 27  9  1  0  0  0
 31 10  1  0  0  0
 31 11  1  0  0  0
 33 12  1  0  0  0
 13 14  2  0  0  0
 13 15  1  0  0  0
 13 16  1  0  0  0
 24 13  1  0  0  0
 18 17  1  0  0  0
 19 18  1  0  0  0
 20 19  1  0  0  0
 19 21  1  0  0  0
 21 22  1  0  0  0
 23 21  1  0  0  0
 23 24  1  0  0  0
 25 23  1  0  0  0
 25 20  1  0  0  0
 26 25  1  0  0  0
 26 27  1  0  0  0
 35 26  1  0  0  0
 28 27  2  0  0  0
 29 28  1  0  0  0
 30 29  4  0  0  0
 29 35  4  0  0  0
 30 31  1  0  0  0
 32 30  4  0  0  0
 32 33  4  0  0  0
 33 34  4  0  0  0
 34 35  4  0  0  0
M  END
$$$$
