### 
### Created by X-TOOL on Mon Oct 24 22:55:26 2005
### 

@<TRIPOS>MOLECULE
1rgk_ligand
   35    37     1     0     0
SMALL
GAST_HUCK


@<TRIPOS>ATOM
      1 H171       24.9809   12.5622   -1.2065 H         1 SUB1        0.209
      2 H181       25.2063   14.0815   -2.9546 H         1 SUB1        0.058
      3 H182       24.5102   15.3135   -1.8481 H         1 SUB1        0.058
      4 H191       22.9860   14.0311   -3.5679 H         1 SUB1        0.065
      5 H211       22.3324   15.3840   -1.1953 H         1 SUB1        0.065
      6 H221       20.2224   15.1466   -2.1125 H         1 SUB1        0.210
      7 H231       22.2642   13.3178    0.1695 H         1 SUB1        0.073
      8 H251       20.9128   12.1489   -2.3530 H         1 SUB1        0.100
      9 H271       23.0645   11.4550    0.6743 H         1 SUB1        0.135
     10 H311       21.2698    5.5074    0.4078 H         1 SUB1        0.182
     11 H312       22.1865    6.7428    1.3113 H         1 SUB1        0.182
     12 H331       19.5177    7.6669   -3.1678 H         1 SUB1        0.100
     13 PA         19.7920   13.7520    1.2250 P.3       1 SUB1        0.206
     14 O1A        20.8270   14.5940    1.8960 O.co2     1 SUB1       -0.535
     15 O2A        19.7170   12.3620    1.7990 O.co2     1 SUB1       -0.535
     16 O3A        18.4580   14.4390    1.1070 O.co2     1 SUB1       -0.535
     17 O5'        24.9700   13.4850   -0.9810 O.3       1 SUB1       -0.392
     18 C5'        24.5220   14.2450   -2.1090 C.3       1 SUB1        0.073
     19 C4'        23.1270   13.8080   -2.5000 C.3       1 SUB1        0.114
     20 O4'        22.9760   12.3730   -2.2650 O.3       1 SUB1       -0.336
     21 C3'        22.0030   14.4660   -1.7040 C.3       1 SUB1        0.119
     22 O3'        20.9330   14.7360   -2.5910 O.3       1 SUB1       -0.386
     23 C2'        21.5990   13.3690   -0.7050 C.3       1 SUB1        0.160
     24 O2'        20.2570   13.5510   -0.2960 O.3       1 SUB1       -0.311
     25 C1'        21.7400   12.1560   -1.6280 C.3       1 SUB1        0.205
     26 N9         21.8020   10.8520   -0.9780 N.pl3     1 SUB1       -0.191
     27 C8         22.5210   10.6580    0.1690 C.2       1 SUB1        0.112
     28 N7         22.4930    9.4040    0.6080 N.2       1 SUB1       -0.296
     29 C5         21.6930    8.7420   -0.3220 C.ar      1 SUB1        0.105
     30 C6         21.2660    7.3980   -0.4120 C.ar      1 SUB1        0.130
     31 N6         21.6000    6.4780    0.5070 N.pl3     1 SUB1       -0.315
     32 N1         20.4860    7.0540   -1.4610 N.ar      1 SUB1       -0.270
     33 C2         20.1470    7.9990   -2.3500 C.ar      1 SUB1        0.053
     34 N3         20.4790    9.2980   -2.3670 N.ar      1 SUB1       -0.271
     35 C4         21.2690    9.6090   -1.3200 C.ar      1 SUB1        0.161
@<TRIPOS>BOND
     1   17    1 1  
     2   18    2 1  
     3   18    3 1  
     4   19    4 1  
     5   21    5 1  
     6   22    6 1  
     7   23    7 1  
     8   25    8 1  
     9   27    9 1  
    10   31   10 1  
    11   31   11 1  
    12   33   12 1  
    13   13   14 2  
    14   13   15 2  
    15   13   16 2  
    16   24   13 1  
    17   18   17 1  
    18   19   18 1  
    19   20   19 1  
    20   19   21 1  
    21   21   22 1  
    22   23   21 1  
    23   23   24 1  
    24   25   23 1  
    25   25   20 1  
    26   26   25 1  
    27   26   27 1  
    28   35   26 1  
    29   28   27 2  
    30   29   28 1  
    31   30   29 ar 
    32   29   35 ar 
    33   30   31 1  
    34   32   30 ar 
    35   32   33 ar 
    36   33   34 ar 
    37   34   35 ar 
@<TRIPOS>SUBSTRUCTURE
     1 SUB1        1 GROUP

