### 
### Created by X-TOOL on Sun Jun  3 11:29:26 2007
### 

@<TRIPOS>MOLECULE
2i0d_ligand
   84    87     1     0     0
SMALL
GAST_HUCK


@<TRIPOS>ATOM
      1 O9         18.4710   33.3790   13.7330 O.2       1 SUB1       -0.152
      2 S8         17.9420   32.5070   14.7630 S.o2      1 SUB1        0.066
      3 O10        17.1760   31.4470   14.1620 O.2       1 SUB1       -0.152
      4 C5         17.0350   33.3960   15.7810 C.ar      1 SUB1        0.097
      5 C4         17.2940   34.7620   15.9630 C.ar      1 SUB1       -0.044
      6 C3         16.5620   35.5430   16.8590 C.ar      1 SUB1       -0.031
      7 C2         15.5670   34.9440   17.6510 C.ar      1 SUB1        0.091
      8 O19        14.8560   35.6510   18.5860 O.3       1 SUB1       -0.321
      9 C18        15.0380   37.0550   18.7950 C.3       1 SUB1        0.059
     10 C7         15.3200   33.5790   17.5070 C.ar      1 SUB1       -0.031
     11 C6         16.0550   32.8130   16.5880 C.ar      1 SUB1       -0.044
     12 N11        19.2180   31.8380   15.4990 N.am      1 SUB1       -0.233
     13 C12        19.9880   32.7990   16.3320 C.3       1 SUB1        0.032
     14 C13        21.4740   32.4330   16.3210 C.3       1 SUB1       -0.030
     15 C14        22.0630   32.3930   14.9120 C.3       1 SUB1       -0.061
     16 C15        22.2990   33.3860   17.1770 C.3       1 SUB1       -0.061
     17 C16        18.9360   30.5520   16.1620 C.3       1 SUB1        0.058
     18 C17        19.8300   29.4520   15.5710 C.3       1 SUB1        0.097
     19 O18        19.7600   28.2940   16.4230 O.3       1 SUB1       -0.388
     20 C19        19.3950   29.1670   14.1200 C.3       1 SUB1        0.079
     21 C32        18.0560   28.4150   14.0070 C.3       1 SUB1        0.006
     22 C38        17.7680   28.0790   12.5480 C.ar      1 SUB1       -0.041
     23 C33        17.9540   26.7850   12.0510 C.ar      1 SUB1       -0.060
     24 C34        17.7220   26.4830   10.7180 C.ar      1 SUB1       -0.069
     25 C35        17.2760   27.4740    9.8470 C.ar      1 SUB1       -0.069
     26 C36        17.0940   28.7610   10.3340 C.ar      1 SUB1       -0.069
     27 C37        17.3350   29.0660   11.6750 C.ar      1 SUB1       -0.060
     28 N20        20.3400   28.3000   13.3950 N.am      1 SUB1       -0.277
     29 C21        21.0390   28.7550   12.3510 C.2       1 SUB1        0.213
     30 O22        21.0420   29.9310   12.0260 O.2       1 SUB1       -0.394
     31 C29        21.8480   27.7840   11.5280 C.3       1 SUB1        0.202
     32 O28        21.8360   26.4690   12.0840 O.3       1 SUB1       -0.232
     33 C26        21.4580   25.5680   11.0160 C.2       1 SUB1        0.356
     34 O27        21.5270   24.3660   11.2130 O.2       1 SUB1       -0.367
     35 C25        21.2060   27.6880   10.1210 C.3       1 SUB1        0.105
     36 N24        21.1320   26.2450    9.9100 N.am      1 SUB1       -0.189
     37 C43        20.7790   25.6650    8.6590 C.ar      1 SUB1        0.077
     38 C44        21.2180   24.3930    8.2840 C.ar      1 SUB1       -0.036
     39 C45        20.8490   23.8240    7.0610 C.ar      1 SUB1       -0.070
     40 C40        20.0400   24.5230    6.1780 C.ar      1 SUB1       -0.058
     41 C42        19.9680   26.3580    7.7500 C.ar      1 SUB1       -0.023
     42 C41        19.5970   25.7990    6.5280 C.ar      1 SUB1        0.019
     43 C46        18.6970   26.5940    5.5760 C.2       1 SUB1        0.126
     44 O45        18.3090   27.7060    5.9080 O.2       1 SUB1       -0.379
     45 C47        18.2950   25.9900    4.2650 C.3       1 SUB1        0.011
     46 H          18.0925   35.2290   15.3864 H         1 SUB1        0.061
     47 H          16.7608   36.6113   16.9440 H         1 SUB1        0.054
     48 H          16.0705   37.2467   19.0870 H         1 SUB1        0.058
     49 H          14.8146   37.5904   17.8722 H         1 SUB1        0.058
     50 H          14.3670   37.3935   19.5844 H         1 SUB1        0.058
     51 H          14.5496   33.1026   18.1132 H         1 SUB1        0.054
     52 H          15.8574   31.7445   16.5027 H         1 SUB1        0.061
     53 H          19.6180   32.7603   17.3565 H         1 SUB1        0.048
     54 H          19.8642   33.8030   15.9260 H         1 SUB1        0.048
     55 H          21.5266   31.4297   16.7438 H         1 SUB1        0.031
     56 H          21.5316   31.6491   14.3184 H         1 SUB1        0.023
     57 H          21.9573   33.3734   14.4474 H         1 SUB1        0.023
     58 H          23.1188   32.1282   14.9683 H         1 SUB1        0.023
     59 H          22.1934   34.4008   16.7934 H         1 SUB1        0.023
     60 H          21.9443   33.3468   18.2069 H         1 SUB1        0.023
     61 H          23.3474   33.0898   17.1409 H         1 SUB1        0.023
     62 H          17.8901   30.2883   16.0048 H         1 SUB1        0.050
     63 H          19.1388   30.6455   17.2289 H         1 SUB1        0.050
     64 H          20.8735   29.7642   15.5305 H         1 SUB1        0.063
     65 H          20.3158   27.5990   16.0628 H         1 SUB1        0.210
     66 H          19.3342   30.1699   13.6974 H         1 SUB1        0.060
     67 H          17.2563   29.0465   14.3941 H         1 SUB1        0.045
     68 H          18.1137   27.4914   14.5830 H         1 SUB1        0.045
     69 H          18.2885   25.9972   12.7260 H         1 SUB1        0.056
     70 H          17.8886   25.4700   10.3516 H         1 SUB1        0.060
     71 H          17.0734   27.2430    8.8012 H         1 SUB1        0.056
     72 H          16.7572   29.5469    9.6580 H         1 SUB1        0.060
     73 H          17.1824   30.0828   12.0369 H         1 SUB1        0.056
     74 H          20.4632   27.3332   13.6959 H         1 SUB1        0.186
     75 H          22.8753   28.1473   11.4990 H         1 SUB1        0.092
     76 H          21.7798   28.2048    9.3518 H         1 SUB1        0.064
     77 H          20.2358   28.1808   10.0580 H         1 SUB1        0.064
     78 H          21.8627   23.8313    8.9599 H         1 SUB1        0.054
     79 H          21.1993   22.8253    6.8004 H         1 SUB1        0.059
     80 H          19.7540   24.0816    5.2233 H         1 SUB1        0.054
     81 H          19.6188   27.3586    8.0048 H         1 SUB1        0.056
     82 H          17.2094   25.9000    4.2255 H         1 SUB1        0.045
     83 H          18.6377   26.6294    3.4515 H         1 SUB1        0.045
     84 H          18.7465   25.0027    4.1676 H         1 SUB1        0.045
@<TRIPOS>BOND
     1    1    2 2  
     2    2    3 2  
     3    2    4 1  
     4    2   12 1  
     5    4    5 ar 
     6    4   11 ar 
     7    5    6 ar 
     8    6    7 ar 
     9    7    8 1  
    10    7   10 ar 
    11    8    9 1  
    12   10   11 ar 
    13   12   13 1  
    14   12   17 1  
    15   13   14 1  
    16   14   15 1  
    17   14   16 1  
    18   17   18 1  
    19   18   19 1  
    20   18   20 1  
    21   20   21 1  
    22   20   28 1  
    23   21   22 1  
    24   22   23 ar 
    25   22   27 ar 
    26   23   24 ar 
    27   24   25 ar 
    28   25   26 ar 
    29   26   27 ar 
    30   28   29 am 
    31   29   30 2  
    32   29   31 1  
    33   31   32 1  
    34   31   35 1  
    35   32   33 1  
    36   33   34 2  
    37   33   36 am 
    38   35   36 1  
    39   36   37 1  
    40   37   38 ar 
    41   37   41 ar 
    42   38   39 ar 
    43   39   40 ar 
    44   40   42 ar 
    45   41   42 ar 
    46   42   43 1  
    47   43   44 2  
    48   43   45 1  
    49    5   46 1  
    50    6   47 1  
    51    9   48 1  
    52    9   49 1  
    53    9   50 1  
    54   10   51 1  
    55   11   52 1  
    56   13   53 1  
    57   13   54 1  
    58   14   55 1  
    59   15   56 1  
    60   15   57 1  
    61   15   58 1  
    62   16   59 1  
    63   16   60 1  
    64   16   61 1  
    65   17   62 1  
    66   17   63 1  
    67   18   64 1  
    68   19   65 1  
    69   20   66 1  
    70   21   67 1  
    71   21   68 1  
    72   23   69 1  
    73   24   70 1  
    74   25   71 1  
    75   26   72 1  
    76   27   73 1  
    77   28   74 1  
    78   31   75 1  
    79   35   76 1  
    80   35   77 1  
    81   38   78 1  
    82   39   79 1  
    83   40   80 1  
    84   41   81 1  
    85   45   82 1  
    86   45   83 1  
    87   45   84 1  
@<TRIPOS>SUBSTRUCTURE
     1 SUB1        1 GROUP

