2i0d_ligand
  -I-interpret- 

 84 87  0  0  0  0  0  0  0  0999 V2000
   18.4710   33.3790   13.7330 O   0  0  0  0  0
   17.9420   32.5070   14.7630 S   0  0  0  0  0
   17.1760   31.4470   14.1620 O   0  0  0  0  0
   17.0350   33.3960   15.7810 C   0  0  0  0  0
   17.2940   34.7620   15.9630 C   0  0  0  0  0
   16.5620   35.5430   16.8590 C   0  0  0  0  0
   15.5670   34.9440   17.6510 C   0  0  0  0  0
   14.8560   35.6510   18.5860 O   0  0  0  0  0
   15.0380   37.0550   18.7950 C   0  0  0  0  0
   15.3200   33.5790   17.5070 C   0  0  0  0  0
   16.0550   32.8130   16.5880 C   0  0  0  0  0
   19.2180   31.8380   15.4990 N   0  0  0  0  0
   19.9880   32.7990   16.3320 C   0  0  0  0  0
   21.4740   32.4330   16.3210 C   0  0  0  0  0
   22.0630   32.3930   14.9120 C   0  0  0  0  0
   22.2990   33.3860   17.1770 C   0  0  0  0  0
   18.9360   30.5520   16.1620 C   0  0  0  0  0
   19.8300   29.4520   15.5710 C   0  0  0  0  0
   19.7600   28.2940   16.4230 O   0  0  0  0  0
   19.3950   29.1670   14.1200 C   0  0  0  0  0
   18.0560   28.4150   14.0070 C   0  0  0  0  0
   17.7680   28.0790   12.5480 C   0  0  0  0  0
   17.9540   26.7850   12.0510 C   0  0  0  0  0
   17.7220   26.4830   10.7180 C   0  0  0  0  0
   17.2760   27.4740    9.8470 C   0  0  0  0  0
   17.0940   28.7610   10.3340 C   0  0  0  0  0
   17.3350   29.0660   11.6750 C   0  0  0  0  0
   20.3400   28.3000   13.3950 N   0  0  0  0  0
   21.0390   28.7550   12.3510 C   0  0  0  0  0
   21.0420   29.9310   12.0260 O   0  0  0  0  0
   21.8480   27.7840   11.5280 C   0  0  0  0  0
   21.8360   26.4690   12.0840 O   0  0  0  0  0
   21.4580   25.5680   11.0160 C   0  0  0  0  0
   21.5270   24.3660   11.2130 O   0  0  0  0  0
   21.2060   27.6880   10.1210 C   0  0  0  0  0
   21.1320   26.2450    9.9100 N   0  0  0  0  0
   20.7790   25.6650    8.6590 C   0  0  0  0  0
   21.2180   24.3930    8.2840 C   0  0  0  0  0
   20.8490   23.8240    7.0610 C   0  0  0  0  0
   20.0400   24.5230    6.1780 C   0  0  0  0  0
   19.9680   26.3580    7.7500 C   0  0  0  0  0
   19.5970   25.7990    6.5280 C   0  0  0  0  0
   18.6970   26.5940    5.5760 C   0  0  0  0  0
   18.3090   27.7060    5.9080 O   0  0  0  0  0
   18.2950   25.9900    4.2650 C   0  0  0  0  0
   18.0925   35.2290   15.3864 H   0  0  0  0  0
   16.7608   36.6113   16.9440 H   0  0  0  0  0
   16.0705   37.2467   19.0870 H   0  0  0  0  0
   14.8146   37.5904   17.8722 H   0  0  0  0  0
   14.3670   37.3935   19.5844 H   0  0  0  0  0
   14.5496   33.1026   18.1132 H   0  0  0  0  0
   15.8574   31.7445   16.5027 H   0  0  0  0  0
   19.6180   32.7603   17.3565 H   0  0  0  0  0
   19.8642   33.8030   15.9260 H   0  0  0  0  0
   21.5266   31.4297   16.7438 H   0  0  0  0  0
   21.5316   31.6491   14.3184 H   0  0  0  0  0
   21.9573   33.3734   14.4474 H   0  0  0  0  0
   23.1188   32.1282   14.9683 H   0  0  0  0  0
   22.1934   34.4008   16.7934 H   0  0  0  0  0
   21.9443   33.3468   18.2069 H   0  0  0  0  0
   23.3474   33.0898   17.1409 H   0  0  0  0  0
   17.8901   30.2883   16.0048 H   0  0  0  0  0
   19.1388   30.6455   17.2289 H   0  0  0  0  0
   20.8735   29.7642   15.5305 H   0  0  0  0  0
   20.3158   27.5990   16.0628 H   0  0  0  0  0
   19.3342   30.1699   13.6974 H   0  0  0  0  0
   17.2563   29.0465   14.3941 H   0  0  0  0  0
   18.1137   27.4914   14.5830 H   0  0  0  0  0
   18.2885   25.9972   12.7260 H   0  0  0  0  0
   17.8886   25.4700   10.3516 H   0  0  0  0  0
   17.0734   27.2430    8.8012 H   0  0  0  0  0
   16.7572   29.5469    9.6580 H   0  0  0  0  0
   17.1824   30.0828   12.0369 H   0  0  0  0  0
   20.4632   27.3332   13.6959 H   0  0  0  0  0
   22.8753   28.1473   11.4990 H   0  0  0  0  0
   21.7798   28.2048    9.3518 H   0  0  0  0  0
   20.2358   28.1808   10.0580 H   0  0  0  0  0
   21.8627   23.8313    8.9599 H   0  0  0  0  0
   21.1993   22.8253    6.8004 H   0  0  0  0  0
   19.7540   24.0816    5.2233 H   0  0  0  0  0
   19.6188   27.3586    8.0048 H   0  0  0  0  0
   17.2094   25.9000    4.2255 H   0  0  0  0  0
   18.6377   26.6294    3.4515 H   0  0  0  0  0
   18.7465   25.0027    4.1676 H   0  0  0  0  0
  1  2  2  0  0  0
  2  3  2  0  0  0
  2  4  1  0  0  0
  2 12  1  0  0  0
  4  5  4  0  0  0
  4 11  4  0  0  0
  5  6  4  0  0  0
  6  7  4  0  0  0
  7  8  1  0  0  0
  7 10  4  0  0  0
  8  9  1  0  0  0
 10 11  4  0  0  0
 12 13  1  0  0  0
 12 17  1  0  0  0
 13 14  1  0  0  0
 14 15  1  0  0  0
 14 16  1  0  0  0
 17 18  1  0  0  0
 18 19  1  0  0  0
 18 20  1  0  0  0
 20 21  1  0  0  0
 20 28  1  0  0  0
 21 22  1  0  0  0
 22 23  4  0  0  0
 22 27  4  0  0  0
 23 24  4  0  0  0
 24 25  4  0  0  0
 25 26  4  0  0  0
 26 27  4  0  0  0
 28 29  1  0  0  0
 29 30  2  0  0  0
 29 31  1  0  0  0
 31 32  1  0  0  0
 31 35  1  0  0  0
 32 33  1  0  0  0
 33 34  2  0  0  0
 33 36  1  0  0  0
 35 36  1  0  0  0
 36 37  1  0  0  0
 37 38  4  0  0  0
 37 41  4  0  0  0
 38 39  4  0  0  0
 39 40  4  0  0  0
 40 42  4  0  0  0
 41 42  4  0  0  0
 42 43  1  0  0  0
 43 44  2  0  0  0
 43 45  1  0  0  0
  5 46  1  0  0  0
  6 47  1  0  0  0
  9 48  1  0  0  0
  9 49  1  0  0  0
  9 50  1  0  0  0
 10 51  1  0  0  0
 11 52  1  0  0  0
 13 53  1  0  0  0
 13 54  1  0  0  0
 14 55  1  0  0  0
 15 56  1  0  0  0
 15 57  1  0  0  0
 15 58  1  0  0  0
 16 59  1  0  0  0
 16 60  1  0  0  0
 16 61  1  0  0  0
 17 62  1  0  0  0
 17 63  1  0  0  0
 18 64  1  0  0  0
 19 65  1  0  0  0
 20 66  1  0  0  0
 21 67  1  0  0  0
 21 68  1  0  0  0
 23 69  1  0  0  0
 24 70  1  0  0  0
 25 71  1  0  0  0
 26 72  1  0  0  0
 27 73  1  0  0  0
 28 74  1  0  0  0
 31 75  1  0  0  0
 35 76  1  0  0  0
 35 77  1  0  0  0
 38 78  1  0  0  0
 39 79  1  0  0  0
 40 80  1  0  0  0
 41 81  1  0  0  0
 45 82  1  0  0  0
 45 83  1  0  0  0
 45 84  1  0  0  0
M  END
$$$$
