### 
### Created by X-TOOL on Tue Oct 25 00:27:27 2005
### 

@<TRIPOS>MOLECULE
4rsk_ligand
   32    33     1     0     0
SMALL
GAST_HUCK


@<TRIPOS>ATOM
      1 N1        -17.4780   40.5510   26.9940 N.am      1 SUB1       -0.159
      2 C2        -16.4660   39.6670   27.3050 C.2       1 SUB1        0.333
      3 N3        -16.4880   38.4790   26.6180 N.am      1 SUB1       -0.186
      4 C4        -17.3880   38.1090   25.6330 C.2       1 SUB1        0.182
      5 C5        -18.4280   39.0830   25.3800 C.2       1 SUB1        0.006
      6 C6        -18.4400   40.2460   26.0590 C.2       1 SUB1        0.059
      7 O2        -15.6160   39.8940   28.1380 O.2       1 SUB1       -0.382
      8 O4        -17.2600   37.0220   25.0570 O.2       1 SUB1       -0.412
      9 P         -15.8830   45.6620   25.8820 P.3       1 SUB1        0.206
     10 O1P       -15.6570   44.9480   24.6010 O.co2     1 SUB1       -0.535
     11 O2P       -14.8210   45.2800   26.8370 O.co2     1 SUB1       -0.535
     12 O3P       -16.0660   47.1290   25.7420 O.co2     1 SUB1       -0.535
     13 O5'       -21.4530   43.4440   26.6720 O.3       1 SUB1       -0.392
     14 C5'       -20.1820   43.7310   26.0890 C.3       1 SUB1        0.073
     15 C4'       -19.0130   43.5950   27.0750 C.3       1 SUB1        0.118
     16 O4'       -18.9560   42.2550   27.6550 O.3       1 SUB1       -0.336
     17 C3'       -17.6480   43.7800   26.4070 C.3       1 SUB1        0.136
     18 O3'       -17.2880   45.1610   26.4590 O.3       1 SUB1       -0.314
     19 C2'       -16.6950   42.9200   27.2490 C.3       1 SUB1        0.143
     20 O2'       -16.2110   43.5960   28.4060 O.3       1 SUB1       -0.383
     21 C1'       -17.6080   41.8070   27.7310 C.3       1 SUB1        0.206
     22 H31       -15.7811   37.8119   26.8531 H         1 SUB1        0.226
     23 H51       -19.2005   38.8756   24.6410 H         1 SUB1        0.026
     24 H61       -19.2336   40.9653   25.8624 H         1 SUB1        0.118
     25 H131      -22.1316   43.5452   26.0150 H         1 SUB1        0.209
     26 H141      -20.0164   43.0344   25.2539 H         1 SUB1        0.058
     27 H142      -20.1984   44.7628   25.7081 H         1 SUB1        0.058
     28 H151      -19.1417   44.3441   27.8701 H         1 SUB1        0.065
     29 H171      -17.6643   43.4368   25.3621 H         1 SUB1        0.070
     30 H191      -15.8553   42.5454   26.6452 H         1 SUB1        0.068
     31 H201      -15.7385   44.3764   28.1410 H         1 SUB1        0.210
     32 H211      -17.3607   41.6033   28.7833 H         1 SUB1        0.100
@<TRIPOS>BOND
     1    1   21 1  
     2    1    6 am 
     3    1    2 am 
     4    2    7 2  
     5    2    3 am 
     6    3    4 am 
     7    4    8 2  
     8    4    5 1  
     9    5    6 2  
    10   21   19 1  
    11   21   16 1  
    12   16   15 1  
    13   15   17 1  
    14   15   14 1  
    15   14   13 1  
    16   17   19 1  
    17   17   18 1  
    18   18    9 1  
    19    9   12 2  
    20    9   11 2  
    21    9   10 2  
    22   19   20 1  
    23    3   22 1  
    24    5   23 1  
    25    6   24 1  
    26   13   25 1  
    27   14   26 1  
    28   14   27 1  
    29   15   28 1  
    30   17   29 1  
    31   19   30 1  
    32   20   31 1  
    33   21   32 1  
@<TRIPOS>SUBSTRUCTURE
     1 SUB1        1 GROUP

