### 
### Created by X-TOOL on Tue Oct 25 00:12:56 2005
### 

@<TRIPOS>MOLECULE
1alw_ligand
   21    21     1     0     0
SMALL
GAST_HUCK


@<TRIPOS>ATOM
      1 CZ          8.6510  -49.7830   37.4240 C.ar      1 SUB1       -0.069
      2 CE1         8.9710  -49.0630   36.2960 C.ar      1 SUB1       -0.069
      3 CD1         9.8710  -49.5360   35.4390 C.ar      1 SUB1       -0.060
      4 CE2         9.2470  -50.9610   37.7170 C.ar      1 SUB1       -0.069
      5 CD2        10.1790  -51.4610   36.8290 C.ar      1 SUB1       -0.060
      6 CG         10.4930  -50.7460   35.6640 C.ar      1 SUB1       -0.039
      7 C4         11.3660  -51.2980   34.6640 C.3       1 SUB1        0.004
      8 C3         10.6520  -52.2670   33.6740 C.3       1 SUB1        0.051
      9 S3         11.8800  -53.0310   32.7030 S.3       1 SUB1       -0.155
     10 C2          9.6110  -51.5540   32.8530 C.2       1 SUB1        0.043
     11 O3          9.9350  -50.4380   32.3120 O.co2     1 SUB1       -0.565
     12 O2          8.4560  -52.1140   32.7060 O.co2     1 SUB1       -0.565
     13 H11         7.8974  -49.3937   38.0990 H         1 SUB1        0.056
     14 H21         8.4896  -48.1105   36.1060 H         1 SUB1        0.060
     15 H31        10.1188  -48.9634   34.5526 H         1 SUB1        0.056
     16 H41         8.9997  -51.4987   38.6251 H         1 SUB1        0.060
     17 H51        10.6682  -52.4067   37.0325 H         1 SUB1        0.056
     18 H71        12.1699  -51.8510   35.1719 H         1 SUB1        0.047
     19 H72        11.7999  -50.4688   34.0859 H         1 SUB1        0.047
     20 H81        10.1380  -53.0462   34.2560 H         1 SUB1        0.065
     21 H91        12.5455  -53.4899   33.3051 H         1 SUB1        0.106
@<TRIPOS>BOND
     1    1    4 ar 
     2    1    2 ar 
     3    2    3 ar 
     4    3    6 ar 
     5    6    7 1  
     6    6    5 ar 
     7    5    4 ar 
     8    7    8 1  
     9    8   10 1  
    10    8    9 1  
    11   10   12 2  
    12   10   11 2  
    13    1   13 1  
    14    2   14 1  
    15    3   15 1  
    16    4   16 1  
    17    5   17 1  
    18    7   18 1  
    19    7   19 1  
    20    8   20 1  
    21    9   21 1  
@<TRIPOS>SUBSTRUCTURE
     1 SUB1        1 GROUP

