### 
### Created by X-TOOL on Tue Oct 25 01:17:01 2005
### 

@<TRIPOS>MOLECULE
1h23_ligand
   84    87     1     0     0
SMALL
GAST_HUCK


@<TRIPOS>ATOM
      1 C1          4.5220   59.6020   71.6660 C.2       1 SUB1        0.181
      2 N2          3.7000   58.5110   71.8970 N.am      1 SUB1       -0.223
      3 O7          5.3310   59.6040   70.7170 O.2       1 SUB1       -0.431
      4 C4          2.5050   59.4210   73.7420 C.2       1 SUB1        0.023
      5 C5          3.3450   60.6450   73.5970 C.2       1 SUB1       -0.078
      6 C14         0.6330   57.1930   73.6090 C.3       1 SUB1       -0.031
      7 N17         0.4280   60.3760   74.7650 N.4       1 SUB1        0.235
      8 C24        -0.4130   60.5350   73.4890 C.3       1 SUB1       -0.033
      9 C6          4.3040   60.7580   72.6160 C.2       1 SUB1       -0.028
     10 C9          2.0050   57.0360   72.9280 C.3       1 SUB1        0.019
     11 C10         1.4770   59.2970   74.8870 C.3       1 SUB1       -0.003
     12 C13         0.7840   57.9110   74.9890 C.3       1 SUB1       -0.004
     13 C63        -0.7010   62.0450   73.3950 C.3       1 SUB1       -0.013
     14 C29         1.0830   68.6220   60.9810 C.2       1 SUB1        0.181
     15 C3          2.7510   58.3750   72.8710 C.2       1 SUB1        0.088
     16 N30         2.4730   68.5940   61.0220 N.am      1 SUB1       -0.223
     17 C31         3.2580   68.5600   62.1370 C.2       1 SUB1        0.088
     18 C32         2.6510   68.5270   63.3920 C.2       1 SUB1        0.023
     19 C33         1.1680   68.5310   63.4560 C.2       1 SUB1       -0.078
     20 C34         0.3990   68.5670   62.3320 C.2       1 SUB1       -0.028
     21 O35         0.4940   68.7720   59.9020 O.2       1 SUB1       -0.431
     22 C36         4.7870   68.5540   61.9260 C.3       1 SUB1        0.019
     23 C37         3.5080   68.5300   64.6550 C.3       1 SUB1       -0.003
     24 C38         5.0070   68.2500   64.4180 C.3       1 SUB1       -0.004
     25 C39         5.5200   69.0220   63.1970 C.3       1 SUB1       -0.031
     26 N40         3.0380   67.5970   65.7540 N.4       1 SUB1        0.235
     27 C41         3.1900   66.1310   65.5760 C.3       1 SUB1       -0.033
     28 C64        -0.4650   62.5560   71.9940 C.3       1 SUB1       -0.048
     29 C65         1.0260   62.5860   71.6890 C.3       1 SUB1       -0.053
     30 C66         1.2970   62.4980   70.2080 C.3       1 SUB1       -0.053
     31 C67         2.7810   62.5820   69.9290 C.3       1 SUB1       -0.053
     32 C68         3.3450   63.9720   70.1360 C.3       1 SUB1       -0.053
     33 C69         4.6020   64.2420   69.3260 C.3       1 SUB1       -0.053
     34 C70         4.8080   65.7340   69.1310 C.3       1 SUB1       -0.053
     35 C71         3.9550   66.3340   68.0170 C.3       1 SUB1       -0.048
     36 C72         4.1820   65.6650   66.6480 C.3       1 SUB1       -0.013
     37 H21         3.8143   57.7328   71.2795 H         1 SUB1        0.253
     38 H51         3.1952   61.4736   74.2875 H         1 SUB1        0.060
     39 H61        -0.0262   57.7894   72.9611 H         1 SUB1        0.030
     40 H62         0.1909   56.1980   73.7654 H         1 SUB1        0.030
     41 H71         0.9046   61.2534   74.9029 H         1 SUB1        0.202
     42 H72        -0.2241   60.2257   75.5188 H         1 SUB1        0.202
     43 H81        -1.3508   59.9657   73.5692 H         1 SUB1        0.081
     44 H82         0.1499   60.1921   72.6084 H         1 SUB1        0.081
     45 H91         4.8971   61.6668   72.5254 H         1 SUB1        0.030
     46 H101        2.6077   56.3131   73.4973 H         1 SUB1        0.051
     47 H102        1.8568   56.6637   71.9036 H         1 SUB1        0.051
     48 H111        2.0228   59.4570   75.8285 H         1 SUB1        0.091
     49 H121       -0.2179   58.0523   75.4206 H         1 SUB1        0.033
     50 H122        1.3821   57.2695   75.6528 H         1 SUB1        0.033
     51 H131       -0.0379   62.5814   74.0897 H         1 SUB1        0.032
     52 H132       -1.7493   62.2290   73.6729 H         1 SUB1        0.032
     53 H161        2.9467   68.5994   60.1413 H         1 SUB1        0.253
     54 H191        0.6807   68.5044   64.4295 H         1 SUB1        0.060
     55 H201       -0.6876   68.5564   62.4032 H         1 SUB1        0.030
     56 H221        5.0385   69.2304   61.0958 H         1 SUB1        0.051
     57 H222        5.1122   67.5328   61.6784 H         1 SUB1        0.051
     58 H231        3.4344   69.5523   65.0543 H         1 SUB1        0.091
     59 H241        5.1501   67.1725   64.2492 H         1 SUB1        0.033
     60 H242        5.5765   68.5609   65.3062 H         1 SUB1        0.033
     61 H251        5.3405   70.0971   63.3451 H         1 SUB1        0.030
     62 H252        6.5991   68.8430   63.0810 H         1 SUB1        0.030
     63 H261        3.5456   67.8462   66.5885 H         1 SUB1        0.202
     64 H262        2.0557   67.7763   65.8920 H         1 SUB1        0.202
     65 H271        2.2206   65.6290   65.7108 H         1 SUB1        0.081
     66 H272        3.5819   65.9083   64.5726 H         1 SUB1        0.081
     67 H281       -0.8746   63.5730   71.9044 H         1 SUB1        0.027
     68 H282       -0.9694   61.8930   71.2757 H         1 SUB1        0.027
     69 H291        1.5092   61.7345   72.1905 H         1 SUB1        0.026
     70 H292        1.4491   63.5259   72.0730 H         1 SUB1        0.026
     71 H301        0.7864   63.3280   69.6977 H         1 SUB1        0.026
     72 H302        0.9118   61.5407   69.8269 H         1 SUB1        0.026
     73 H311        2.9588   62.2837   68.8853 H         1 SUB1        0.026
     74 H312        3.3041   61.8877   70.6030 H         1 SUB1        0.026
     75 H321        3.5847   64.0954   71.2024 H         1 SUB1        0.026
     76 H322        2.5789   64.7057   69.8450 H         1 SUB1        0.026
     77 H331        4.5075   63.7594   68.3420 H         1 SUB1        0.026
     78 H332        5.4700   63.8246   69.8573 H         1 SUB1        0.026
     79 H341        5.8667   65.9091   68.8894 H         1 SUB1        0.026
     80 H342        4.5574   66.2445   70.0726 H         1 SUB1        0.026
     81 H351        4.1987   67.4029   67.9279 H         1 SUB1        0.027
     82 H352        2.8953   66.2210   68.2893 H         1 SUB1        0.027
     83 H361        4.0796   64.5766   66.7695 H         1 SUB1        0.032
     84 H362        5.2009   65.9017   66.3079 H         1 SUB1        0.032
@<TRIPOS>BOND
     1    1    9 1  
     2    1    3 2  
     3    1    2 am 
     4    2   15 am 
     5   15   10 1  
     6   15    4 2  
     7    4   11 1  
     8    4    5 1  
     9    5    9 2  
    10   11    7 1  
    11   11   12 1  
    12   12    6 1  
    13    6   10 1  
    14    7    8 1  
    15    8   13 1  
    16   13   28 1  
    17   28   29 1  
    18   29   30 1  
    19   30   31 1  
    20   31   32 1  
    21   32   33 1  
    22   33   34 1  
    23   34   35 1  
    24   35   36 1  
    25   36   27 1  
    26   27   26 1  
    27   26   23 1  
    28   23   24 1  
    29   23   18 1  
    30   18   19 1  
    31   18   17 2  
    32   17   22 1  
    33   17   16 am 
    34   16   14 am 
    35   14   20 1  
    36   14   21 2  
    37   20   19 2  
    38   22   25 1  
    39   25   24 1  
    40    2   37 1  
    41    5   38 1  
    42    6   39 1  
    43    6   40 1  
    44    7   41 1  
    45    7   42 1  
    46    8   43 1  
    47    8   44 1  
    48    9   45 1  
    49   10   46 1  
    50   10   47 1  
    51   11   48 1  
    52   12   49 1  
    53   12   50 1  
    54   13   51 1  
    55   13   52 1  
    56   16   53 1  
    57   19   54 1  
    58   20   55 1  
    59   22   56 1  
    60   22   57 1  
    61   23   58 1  
    62   24   59 1  
    63   24   60 1  
    64   25   61 1  
    65   25   62 1  
    66   26   63 1  
    67   26   64 1  
    68   27   65 1  
    69   27   66 1  
    70   28   67 1  
    71   28   68 1  
    72   29   69 1  
    73   29   70 1  
    74   30   71 1  
    75   30   72 1  
    76   31   73 1  
    77   31   74 1  
    78   32   75 1  
    79   32   76 1  
    80   33   77 1  
    81   33   78 1  
    82   34   79 1  
    83   34   80 1  
    84   35   81 1  
    85   35   82 1  
    86   36   83 1  
    87   36   84 1  
@<TRIPOS>SUBSTRUCTURE
     1 SUB1        1 GROUP

