1l6m_ligand
  -I-interpret- 

 16 16  0  0  0  0  0  0  0  0999 V2000
   31.1090   76.4080   66.2180 O   0  5  0  0  0
   32.0030   75.6200   65.5910 C   0  0  0  0  0
   33.0180   75.2480   66.1960 O   0  0  0  0  0
   31.6450   75.1920   64.1430 C   0  0  0  0  0
   32.4820   74.2040   63.4330 C   0  0  0  0  0
   32.1960   73.7700   62.1370 C   0  0  0  0  0
   30.5140   75.6890   63.4150 C   0  0  0  0  0
   29.6370   76.5890   63.8880 O   0  0  0  0  0
   30.2330   75.2120   62.0490 C   0  0  0  0  0
   31.0810   74.2540   61.4240 C   0  0  0  0  0
   29.1390   75.7420   61.4610 O   0  0  0  0  0
   33.3522   73.8000   63.9375 H   0  0  0  0  0
   32.8481   73.0424   61.6675 H   0  0  0  0  0
   28.9763   76.7629   63.2279 H   0  0  0  0  0
   30.8730   73.9039   60.4194 H   0  0  0  0  0
   28.7265   76.3559   62.0572 H   0  0  0  0  0
  1  2  1  0  0  0
  2  3  2  0  0  0
  2  4  1  0  0  0
  4  5  4  0  0  0
  4  7  4  0  0  0
  5  6  4  0  0  0
  6 10  4  0  0  0
  7  8  1  0  0  0
  7  9  4  0  0  0
  9 10  4  0  0  0
  9 11  1  0  0  0
  5 12  1  0  0  0
  6 13  1  0  0  0
  8 14  1  0  0  0
 10 15  1  0  0  0
 11 16  1  0  0  0
M  END
$$$$
