1dif_ligand
  -I-interpret- 

116119  0  0  0  0  0  0  0  0999 V2000
    3.3710    3.2440   10.6920 C   0  0  0  0  0
    3.1580    3.9230   11.6780 O   0  0  0  0  0
    3.9360    3.7880    9.5880 N   0  0  0  0  0
    4.3560    3.0410    8.4100 C   0  0  0  0  0
    4.2080    5.1970    9.5570 C   0  0  0  0  0
    5.5530    5.5010   10.1640 C   0  0  0  0  0
    5.6990    5.5620   11.5750 C   0  0  0  0  0
    6.5630    5.7500    9.2950 N   0  0  0  0  0
    6.9460    5.9050   12.1100 C   0  0  0  0  0
    7.7480    6.1020    9.8440 C   0  0  0  0  0
    7.9940    6.1900   11.2340 C   0  0  0  0  0
    3.0420    1.9380   10.6590 N   0  0  0  0  0
    2.5260    1.2550   11.8400 C   0  0  0  0  0
    3.6010    0.3240   12.3920 C   0  0  0  0  0
    3.6530   -0.8760   12.1430 O   0  0  0  0  0
    1.2120    0.5400   11.5360 C   0  0  0  0  0
    0.6900   -0.1890   12.7810 C   0  0  0  0  0
    0.1270    1.5020   11.0100 C   0  0  0  0  0
    4.4710    0.9440   13.1890 N   0  0  0  0  0
    5.4170    0.2040   14.0260 C   0  0  0  0  0
    6.7580    0.9060   14.0100 C   0  0  0  0  0
    7.1910    0.9950   12.6000 C   0  0  0  0  0
    6.9620    2.1660   11.8770 C   0  0  0  0  0
    7.3180    2.2260   10.5290 C   0  0  0  0  0
    7.8910    1.1110    9.9160 C   0  0  0  0  0
    8.1260   -0.0590   10.6460 C   0  0  0  0  0
    7.7790   -0.1170   11.9860 C   0  0  0  0  0
    4.8310    0.0730   15.4350 C   0  0  0  0  0
    4.9900    1.2280   16.1180 F   0  0  0  0  0
    3.4910   -0.0550   15.3950 F   0  0  0  0  0
    5.3510   -1.0750   16.3120 C   0  0  0  0  0
    6.7280   -1.1480   16.1330 O   0  0  0  0  0
    5.1400   -0.7540   17.6490 O   0  0  0  0  0
    5.6720   -3.4510   16.4150 N   0  0  0  0  0
    4.7250   -2.4420   15.9740 C   0  0  0  0  0
    3.3380   -2.7440   16.5810 C   0  0  0  0  0
    2.9690   -4.1640   16.2730 C   0  0  0  0  0
    2.5230   -4.5260   14.9940 C   0  0  0  0  0
    2.2460   -5.8690   14.6830 C   0  0  0  0  0
    2.4260   -6.8580   15.6460 C   0  0  0  0  0
    2.8700   -6.4950   16.9160 C   0  0  0  0  0
    3.1350   -5.1620   17.2340 C   0  0  0  0  0
    7.0860   -6.1630   16.6480 N   0  0  0  0  0
    7.6010   -4.8630   16.2970 C   0  0  0  0  0
    6.5080   -4.0710   15.5860 C   0  0  0  0  0
    6.4240   -3.9600   14.3810 O   0  0  0  0  0
    8.9080   -4.9760   15.5210 C   0  0  0  0  0
    9.8120   -5.9170   16.3290 C   0  0  0  0  0
    9.5580   -3.5930   15.2780 C   0  0  0  0  0
    6.8600   -6.5570   17.9310 C   0  0  0  0  0
    7.1850   -5.8670   18.8910 O   0  0  0  0  0
    6.2940   -7.7700   18.1310 N   0  0  0  0  0
    5.8690   -8.6300   17.0160 C   0  0  0  0  0
    6.0610   -8.2570   19.4870 C   0  0  0  0  0
    4.6680   -7.8930   19.9620 C   0  0  0  0  0
    4.4290   -6.6260   20.5360 C   0  0  0  0  0
    3.6960   -8.8200   19.8070 N   0  0  0  0  0
    3.1300   -6.3160   20.9580 C   0  0  0  0  0
    2.4620   -8.5000   20.2030 C   0  0  0  0  0
    2.1280   -7.2740   20.7830 C   0  0  0  0  0
    6.7380   -8.9780   16.4580 H   0  0  0  0  0
    6.1730   -9.3410   19.5050 H   0  0  0  0  0
    6.8210   -7.8690   20.1660 H   0  0  0  0  0
    5.2270   -5.9030   20.6250 H   0  0  0  0  0
    2.9140   -5.3500   21.3910 H   0  0  0  0  0
    1.6780   -9.2340   20.0530 H   0  0  0  0  0
    1.1080   -7.0700   21.0840 H   0  0  0  0  0
    5.2120   -8.0920   16.3310 H   0  0  0  0  0
    5.3200   -9.4990   17.3800 H   0  0  0  0  0
    5.0250    2.2270    8.6910 H   0  0  0  0  0
    4.8770    3.6650    7.6820 H   0  0  0  0  0
    3.4860    2.6040    7.9220 H   0  0  0  0  0
    4.1950    5.5620    8.5300 H   0  0  0  0  0
    3.4180    5.7490   10.0640 H   0  0  0  0  0
    4.8730    5.3500   12.2400 H   0  0  0  0  0
    7.0850    5.9310   13.1810 H   0  0  0  0  0
    8.5720    6.3040    9.1680 H   0  0  0  0  0
    8.9750    6.4510   11.6110 H   0  0  0  0  0
    3.1610    1.3670    9.8430 H   0  0  0  0  0
    2.3050    1.9890   12.6170 H   0  0  0  0  0
    1.4080   -0.2060   10.7630 H   0  0  0  0  0
    0.4900    0.4970   13.6060 H   0  0  0  0  0
    1.3890   -0.9450   13.1430 H   0  0  0  0  0
   -0.2370   -0.7220   12.5640 H   0  0  0  0  0
    0.4380    1.9780   10.0770 H   0  0  0  0  0
   -0.0820    2.2990   11.7230 H   0  0  0  0  0
   -0.8030    0.9760   10.8000 H   0  0  0  0  0
    4.4720    1.9420   13.2530 H   0  0  0  0  0
    5.5300   -0.7980   13.6100 H   0  0  0  0  0
    7.5500    0.4260   14.5760 H   0  0  0  0  0
    6.6710    1.9050   14.4440 H   0  0  0  0  0
    6.5180    3.0310   12.3520 H   0  0  0  0  0
    7.1650    3.1330    9.9630 H   0  0  0  0  0
    8.1490    1.1600    8.8660 H   0  0  0  0  0
    8.5800   -0.9130   10.1620 H   0  0  0  0  0
    7.9650   -1.0220   12.5450 H   0  0  0  0  0
    7.1157   -0.3154   16.3442 H   0  0  0  0  0
    5.5156   -1.4255   18.1957 H   0  0  0  0  0
    5.6950   -3.6670   17.3900 H   0  0  0  0  0
    4.6120   -2.5050   14.8910 H   0  0  0  0  0
    2.5670   -2.0780   16.1950 H   0  0  0  0  0
    3.3470   -2.5980   17.6640 H   0  0  0  0  0
    2.3860   -3.7620   14.2450 H   0  0  0  0  0
    1.8940   -6.1300   13.6960 H   0  0  0  0  0
    2.2310   -7.8970   15.4310 H   0  0  0  0  0
    3.0000   -7.2550   17.6730 H   0  0  0  0  0
    3.4750   -4.9090   18.2310 H   0  0  0  0  0
    6.8520   -6.7400   15.8580 H   0  0  0  0  0
    7.8260   -4.3200   17.2170 H   0  0  0  0  0
    8.7070   -5.4330   14.5470 H   0  0  0  0  0
   10.8390   -5.8800   15.9700 H   0  0  0  0  0
    9.4860   -6.9550   16.2450 H   0  0  0  0  0
    9.8300   -5.6530   17.3890 H   0  0  0  0  0
    8.9170   -2.9510   14.6730 H   0  0  0  0  0
   10.4970   -3.6920   14.7300 H   0  0  0  0  0
    9.7800   -3.0710   16.2110 H   0  0  0  0  0
  1  2  2  0  0  0
  1  3  1  0  0  0
 12  1  1  0  0  0
  3  4  1  0  0  0
  3  5  1  0  0  0
  4 70  1  0  0  0
  4 71  1  0  0  0
  4 72  1  0  0  0
  5  6  1  0  0  0
  5 73  1  0  0  0
  5 74  1  0  0  0
  6  7  4  0  0  0
  6  8  4  0  0  0
  7  9  4  0  0  0
  7 75  1  0  0  0
  8 10  4  0  0  0
  9 11  4  0  0  0
  9 76  1  0  0  0
 10 11  4  0  0  0
 10 77  1  0  0  0
 11 78  1  0  0  0
 13 12  1  0  0  0
 12 79  1  0  0  0
 14 13  1  0  0  0
 13 16  1  0  0  0
 13 80  1  0  0  0
 14 15  2  0  0  0
 19 14  1  0  0  0
 16 17  1  0  0  0
 16 18  1  0  0  0
 16 81  1  0  0  0
 17 82  1  0  0  0
 17 83  1  0  0  0
 17 84  1  0  0  0
 18 85  1  0  0  0
 18 86  1  0  0  0
 18 87  1  0  0  0
 20 19  1  0  0  0
 19 88  1  0  0  0
 20 21  1  0  0  0
 28 20  1  0  0  0
 20 89  1  0  0  0
 21 22  1  0  0  0
 21 90  1  0  0  0
 21 91  1  0  0  0
 22 23  4  0  0  0
 22 27  4  0  0  0
 23 24  4  0  0  0
 23 92  1  0  0  0
 24 25  4  0  0  0
 24 93  1  0  0  0
 26 25  4  0  0  0
 25 94  1  0  0  0
 27 26  4  0  0  0
 26 95  1  0  0  0
 27 96  1  0  0  0
 28 29  1  0  0  0
 28 30  1  0  0  0
 31 28  1  0  0  0
 31 32  1  0  0  0
 31 33  1  0  0  0
 35 31  1  0  0  0
 32 97  1  0  0  0
 33 98  1  0  0  0
 35 36  1  0  0  0
 35100  1  0  0  0
 36 37  1  0  0  0
 36101  1  0  0  0
 36102  1  0  0  0
 37 38  4  0  0  0
 37 42  4  0  0  0
 38 39  4  0  0  0
 38103  1  0  0  0
 39 40  4  0  0  0
 39104  1  0  0  0
 41 40  4  0  0  0
 40105  1  0  0  0
 42 41  4  0  0  0
 41106  1  0  0  0
 42107  1  0  0  0
 44 43  1  0  0  0
 43 50  1  0  0  0
 45 44  1  0  0  0
 44 47  1  0  0  0
 45 46  2  0  0  0
 47 48  1  0  0  0
 47 49  1  0  0  0
 50 51  2  0  0  0
 50 52  1  0  0  0
 52 53  1  0  0  0
 52 54  1  0  0  0
 53 61  1  0  0  0
 53 68  1  0  0  0
 53 69  1  0  0  0
 54 55  1  0  0  0
 54 62  1  0  0  0
 54 63  1  0  0  0
 55 56  4  0  0  0
 55 57  4  0  0  0
 56 58  4  0  0  0
 56 64  1  0  0  0
 57 59  4  0  0  0
 58 60  4  0  0  0
 58 65  1  0  0  0
 59 60  4  0  0  0
 59 66  1  0  0  0
 60 67  1  0  0  0
 49116  1  0  0  0
 49115  1  0  0  0
 49114  1  0  0  0
 48113  1  0  0  0
 48112  1  0  0  0
 48111  1  0  0  0
 47110  1  0  0  0
 44109  1  0  0  0
 43108  1  0  0  0
 34 99  1  0  0  0
 34 45  1  0  0  0
 35 34  1  0  0  0
M  END
$$$$
