### 
### Created by X-TOOL on Mon Oct 24 22:27:45 2005
### 

@<TRIPOS>MOLECULE
1dif_ligand
  116   119     1     0     0
SMALL
GAST_HUCK


@<TRIPOS>ATOM
      1 C1          3.3710    3.2440   10.6920 C.2       1 SUB1        0.264
      2 O2          3.1580    3.9230   11.6780 O.2       1 SUB1       -0.400
      3 N3          3.9360    3.7880    9.5880 N.am      1 SUB1       -0.249
      4 C4          4.3560    3.0410    8.4100 C.3       1 SUB1        0.025
      5 C5          4.2080    5.1970    9.5570 C.3       1 SUB1        0.083
      6 C6          5.5530    5.5010   10.1640 C.ar      1 SUB1        0.050
      7 C7          5.6990    5.5620   11.5750 C.ar      1 SUB1       -0.030
      8 N8          6.5630    5.7500    9.2950 N.ar      1 SUB1       -0.296
      9 C9          6.9460    5.9050   12.1100 C.ar      1 SUB1       -0.049
     10 C10         7.7480    6.1020    9.8440 C.ar      1 SUB1        0.003
     11 C11         7.9940    6.1900   11.2340 C.ar      1 SUB1       -0.041
     12 N21         3.0420    1.9380   10.6590 N.am      1 SUB1       -0.251
     13 C22         2.5260    1.2550   11.8400 C.3       1 SUB1        0.133
     14 C23         3.6010    0.3240   12.3920 C.2       1 SUB1        0.202
     15 O24         3.6530   -0.8760   12.1430 O.2       1 SUB1       -0.394
     16 C25         1.2120    0.5400   11.5360 C.3       1 SUB1       -0.007
     17 C26         0.6900   -0.1890   12.7810 C.3       1 SUB1       -0.058
     18 C27         0.1270    1.5020   11.0100 C.3       1 SUB1       -0.058
     19 N37         4.4710    0.9440   13.1890 N.am      1 SUB1       -0.274
     20 C38         5.4170    0.2040   14.0260 C.3       1 SUB1        0.120
     21 C39         6.7580    0.9060   14.0100 C.3       1 SUB1        0.010
     22 C40         7.1910    0.9950   12.6000 C.ar      1 SUB1       -0.041
     23 C41         6.9620    2.1660   11.8770 C.ar      1 SUB1       -0.060
     24 C42         7.3180    2.2260   10.5290 C.ar      1 SUB1       -0.069
     25 C43         7.8910    1.1110    9.9160 C.ar      1 SUB1       -0.069
     26 C44         8.1260   -0.0590   10.6460 C.ar      1 SUB1       -0.069
     27 C45         7.7790   -0.1170   11.9860 C.ar      1 SUB1       -0.060
     28 C46         4.8310    0.0730   15.4350 C.3       1 SUB1        0.327
     29 F1          4.9900    1.2280   16.1180 F         1 SUB1       -0.197
     30 F2          3.4910   -0.0550   15.3950 F         1 SUB1       -0.197
     31 C49         5.3510   -1.0750   16.3120 C.3       1 SUB1        0.258
     32 O47         6.7280   -1.1480   16.1330 O.3       1 SUB1       -0.358
     33 O48         5.1400   -0.7540   17.6490 O.3       1 SUB1       -0.358
     34 N50         5.6720   -3.4510   16.4150 N.am      1 SUB1       -0.275
     35 C51         4.7250   -2.4420   15.9740 C.3       1 SUB1        0.111
     36 C52         3.3380   -2.7440   16.5810 C.3       1 SUB1        0.009
     37 C53         2.9690   -4.1640   16.2730 C.ar      1 SUB1       -0.041
     38 C54         2.5230   -4.5260   14.9940 C.ar      1 SUB1       -0.060
     39 C55         2.2460   -5.8690   14.6830 C.ar      1 SUB1       -0.069
     40 C56         2.4260   -6.8580   15.6460 C.ar      1 SUB1       -0.069
     41 C57         2.8700   -6.4950   16.9160 C.ar      1 SUB1       -0.069
     42 C58         3.1350   -5.1620   17.2340 C.ar      1 SUB1       -0.060
     43 N81         7.0860   -6.1630   16.6480 N.am      1 SUB1       -0.251
     44 C82         7.6010   -4.8630   16.2970 C.3       1 SUB1        0.133
     45 C83         6.5080   -4.0710   15.5860 C.2       1 SUB1        0.202
     46 O84         6.4240   -3.9600   14.3810 O.2       1 SUB1       -0.394
     47 C85         8.9080   -4.9760   15.5210 C.3       1 SUB1       -0.007
     48 C86         9.8120   -5.9170   16.3290 C.3       1 SUB1       -0.058
     49 C87         9.5580   -3.5930   15.2780 C.3       1 SUB1       -0.058
     50 C97         6.8600   -6.5570   17.9310 C.2       1 SUB1        0.264
     51 O98         7.1850   -5.8670   18.8910 O.2       1 SUB1       -0.400
     52 N99         6.2940   -7.7700   18.1310 N.am      1 SUB1       -0.249
     53 C2          5.8690   -8.6300   17.0160 C.3       1 SUB1        0.025
     54 C3          6.0610   -8.2570   19.4870 C.3       1 SUB1        0.083
     55 C8          4.6680   -7.8930   19.9620 C.ar      1 SUB1        0.050
     56 C12         4.4290   -6.6260   20.5360 C.ar      1 SUB1       -0.030
     57 N10         3.6960   -8.8200   19.8070 N.ar      1 SUB1       -0.296
     58 C13         3.1300   -6.3160   20.9580 C.ar      1 SUB1       -0.049
     59 C14         2.4620   -8.5000   20.2030 C.ar      1 SUB1        0.003
     60 C15         2.1280   -7.2740   20.7830 C.ar      1 SUB1       -0.041
     61 H531        6.7380   -8.9780   16.4580 H         1 SUB1        0.049
     62 H541        6.1730   -9.3410   19.5050 H         1 SUB1        0.071
     63 H542        6.8210   -7.8690   20.1660 H         1 SUB1        0.071
     64 H561        5.2270   -5.9030   20.6250 H         1 SUB1        0.065
     65 H581        2.9140   -5.3500   21.3910 H         1 SUB1        0.072
     66 H591        1.6780   -9.2340   20.0530 H         1 SUB1        0.080
     67 H601        1.1080   -7.0700   21.0840 H         1 SUB1        0.065
     68 H532        5.2120   -8.0920   16.3310 H         1 SUB1        0.049
     69 H533        5.3200   -9.4990   17.3800 H         1 SUB1        0.049
     70 H41         5.0250    2.2270    8.6910 H         1 SUB1        0.049
     71 H42         4.8770    3.6650    7.6820 H         1 SUB1        0.049
     72 H43         3.4860    2.6040    7.9220 H         1 SUB1        0.049
     73 H51         4.1950    5.5620    8.5300 H         1 SUB1        0.071
     74 H52         3.4180    5.7490   10.0640 H         1 SUB1        0.071
     75 H71         4.8730    5.3500   12.2400 H         1 SUB1        0.065
     76 H91         7.0850    5.9310   13.1810 H         1 SUB1        0.072
     77 H101        8.5720    6.3040    9.1680 H         1 SUB1        0.080
     78 H111        8.9750    6.4510   11.6110 H         1 SUB1        0.065
     79 H121        3.1610    1.3670    9.8430 H         1 SUB1        0.188
     80 H131        2.3050    1.9890   12.6170 H         1 SUB1        0.080
     81 H161        1.4080   -0.2060   10.7630 H         1 SUB1        0.034
     82 H171        0.4900    0.4970   13.6060 H         1 SUB1        0.023
     83 H172        1.3890   -0.9450   13.1430 H         1 SUB1        0.023
     84 H173       -0.2370   -0.7220   12.5640 H         1 SUB1        0.023
     85 H181        0.4380    1.9780   10.0770 H         1 SUB1        0.023
     86 H182       -0.0820    2.2990   11.7230 H         1 SUB1        0.023
     87 H183       -0.8030    0.9760   10.8000 H         1 SUB1        0.023
     88 H191        4.4720    1.9420   13.2530 H         1 SUB1        0.186
     89 H201        5.5300   -0.7980   13.6100 H         1 SUB1        0.064
     90 H211        7.5500    0.4260   14.5760 H         1 SUB1        0.045
     91 H212        6.6710    1.9050   14.4440 H         1 SUB1        0.045
     92 H231        6.5180    3.0310   12.3520 H         1 SUB1        0.056
     93 H241        7.1650    3.1330    9.9630 H         1 SUB1        0.060
     94 H251        8.1490    1.1600    8.8660 H         1 SUB1        0.056
     95 H261        8.5800   -0.9130   10.1620 H         1 SUB1        0.060
     96 H271        7.9650   -1.0220   12.5450 H         1 SUB1        0.056
     97 H321        7.1157   -0.3154   16.3442 H         1 SUB1        0.213
     98 H331        5.5156   -1.4255   18.1957 H         1 SUB1        0.213
     99 H341        5.6950   -3.6670   17.3900 H         1 SUB1        0.186
    100 H351        4.6120   -2.5050   14.8910 H         1 SUB1        0.063
    101 H361        2.5670   -2.0780   16.1950 H         1 SUB1        0.045
    102 H362        3.3470   -2.5980   17.6640 H         1 SUB1        0.045
    103 H381        2.3860   -3.7620   14.2450 H         1 SUB1        0.056
    104 H391        1.8940   -6.1300   13.6960 H         1 SUB1        0.060
    105 H401        2.2310   -7.8970   15.4310 H         1 SUB1        0.056
    106 H411        3.0000   -7.2550   17.6730 H         1 SUB1        0.060
    107 H421        3.4750   -4.9090   18.2310 H         1 SUB1        0.056
    108 H431        6.8520   -6.7400   15.8580 H         1 SUB1        0.188
    109 H441        7.8260   -4.3200   17.2170 H         1 SUB1        0.080
    110 H471        8.7070   -5.4330   14.5470 H         1 SUB1        0.034
    111 H481       10.8390   -5.8800   15.9700 H         1 SUB1        0.023
    112 H482        9.4860   -6.9550   16.2450 H         1 SUB1        0.023
    113 H483        9.8300   -5.6530   17.3890 H         1 SUB1        0.023
    114 H491        8.9170   -2.9510   14.6730 H         1 SUB1        0.023
    115 H492       10.4970   -3.6920   14.7300 H         1 SUB1        0.023
    116 H493        9.7800   -3.0710   16.2110 H         1 SUB1        0.023
@<TRIPOS>BOND
     1    1    2 2  
     2    1    3 am 
     3   12    1 am 
     4    3    4 1  
     5    3    5 1  
     6    4   70 1  
     7    4   71 1  
     8    4   72 1  
     9    5    6 1  
    10    5   73 1  
    11    5   74 1  
    12    6    7 ar 
    13    6    8 ar 
    14    7    9 ar 
    15    7   75 1  
    16    8   10 ar 
    17    9   11 ar 
    18    9   76 1  
    19   10   11 ar 
    20   10   77 1  
    21   11   78 1  
    22   13   12 1  
    23   12   79 1  
    24   14   13 1  
    25   13   16 1  
    26   13   80 1  
    27   14   15 2  
    28   19   14 am 
    29   16   17 1  
    30   16   18 1  
    31   16   81 1  
    32   17   82 1  
    33   17   83 1  
    34   17   84 1  
    35   18   85 1  
    36   18   86 1  
    37   18   87 1  
    38   20   19 1  
    39   19   88 1  
    40   20   21 1  
    41   28   20 1  
    42   20   89 1  
    43   21   22 1  
    44   21   90 1  
    45   21   91 1  
    46   22   23 ar 
    47   22   27 ar 
    48   23   24 ar 
    49   23   92 1  
    50   24   25 ar 
    51   24   93 1  
    52   26   25 ar 
    53   25   94 1  
    54   27   26 ar 
    55   26   95 1  
    56   27   96 1  
    57   28   29 1  
    58   28   30 1  
    59   31   28 1  
    60   31   32 1  
    61   31   33 1  
    62   35   31 1  
    63   32   97 1  
    64   33   98 1  
    65   35   36 1  
    66   35  100 1  
    67   36   37 1  
    68   36  101 1  
    69   36  102 1  
    70   37   38 ar 
    71   37   42 ar 
    72   38   39 ar 
    73   38  103 1  
    74   39   40 ar 
    75   39  104 1  
    76   41   40 ar 
    77   40  105 1  
    78   42   41 ar 
    79   41  106 1  
    80   42  107 1  
    81   44   43 1  
    82   43   50 am 
    83   45   44 1  
    84   44   47 1  
    85   45   46 2  
    86   47   48 1  
    87   47   49 1  
    88   50   51 2  
    89   50   52 am 
    90   52   53 1  
    91   52   54 1  
    92   53   61 1  
    93   53   68 1  
    94   53   69 1  
    95   54   55 1  
    96   54   62 1  
    97   54   63 1  
    98   55   56 ar 
    99   55   57 ar 
   100   56   58 ar 
   101   56   64 1  
   102   57   59 ar 
   103   58   60 ar 
   104   58   65 1  
   105   59   60 ar 
   106   59   66 1  
   107   60   67 1  
   108   49  116 1  
   109   49  115 1  
   110   49  114 1  
   111   48  113 1  
   112   48  112 1  
   113   48  111 1  
   114   47  110 1  
   115   44  109 1  
   116   43  108 1  
   117   34   99 1  
   118   34   45 am 
   119   35   34 1  
@<TRIPOS>SUBSTRUCTURE
     1 SUB1        1 GROUP

