### 
### Created by X-TOOL on Tue Oct 25 02:43:23 2005
### 

@<TRIPOS>MOLECULE
1y0l_ligand
   37    38     1     0     0
SMALL
GAST_HUCK


@<TRIPOS>ATOM
      1 N1         19.5170   87.8010   41.9100 N.pl3     1 SUB1       -0.222
      2 C2         20.9480   88.0010   42.0070 C.2       1 SUB1        0.209
      3 N3         21.5000   88.6390   41.0400 N.2       1 SUB1       -0.321
      4 C4         20.5170   89.6430   38.8940 C.ar      1 SUB1       -0.074
      5 C5         19.3020   89.8230   38.1630 C.ar      1 SUB1       -0.062
      6 C6         18.0440   89.3080   38.7000 C.ar      1 SUB1       -0.059
      7 C7         18.0250   88.6240   39.9460 C.ar      1 SUB1       -0.049
      8 C9         20.4760   88.9440   40.1580 C.ar      1 SUB1       -0.002
      9 C8         19.2520   88.4450   40.6710 C.ar      1 SUB1        0.065
     10 C10        19.4010   90.5710   36.8170 C.3       1 SUB1       -0.040
     11 C11        16.6870   89.4570   37.9790 C.3       1 SUB1       -0.039
     12 N12        21.7100   87.5220   43.0950 N.pl3     1 SUB1       -0.290
     13 C13        18.5970   87.1100   42.8440 C.3       1 SUB1        0.056
     14 C14        17.9990   88.0270   43.9220 C.3       1 SUB1       -0.024
     15 C15        18.3940   87.6030   45.3440 C.3       1 SUB1       -0.039
     16 C16        17.7340   86.2770   45.7950 C.3       1 SUB1       -0.014
     17 C17        16.8770   86.4180   47.0600 C.2       1 SUB1        0.028
     18 O18        15.7960   85.7900   47.1170 O.co2     1 SUB1       -0.567
     19 O19        17.2780   87.1510   48.0050 O.co2     1 SUB1       -0.567
     20 H41        21.4545   90.0249   38.5062 H         1 SUB1        0.043
     21 H71        17.0929   88.2409   40.3454 H         1 SUB1        0.045
     22 H101       20.4470   90.8570   36.6326 H         1 SUB1        0.036
     23 H102       18.7747   91.4746   36.8527 H         1 SUB1        0.036
     24 H103       19.0520   89.9147   36.0062 H         1 SUB1        0.036
     25 H111       16.8320   89.9997   37.0333 H         1 SUB1        0.036
     26 H112       15.9906   90.0173   38.6202 H         1 SUB1        0.036
     27 H113       16.2716   88.4602   37.7697 H         1 SUB1        0.036
     28 H121       22.7264   87.6866   43.1240 H         1 SUB1        0.185
     29 H122       21.2495   87.0080   43.8596 H         1 SUB1        0.185
     30 H131       19.1531   86.3039   43.3448 H         1 SUB1        0.059
     31 H132       17.7710   86.6778   42.2601 H         1 SUB1        0.059
     32 H141       16.9025   88.0004   43.8384 H         1 SUB1        0.029
     33 H142       18.3552   89.0532   43.7487 H         1 SUB1        0.029
     34 H151       18.0919   88.3979   46.0417 H         1 SUB1        0.030
     35 H152       19.4864   87.4789   45.3803 H         1 SUB1        0.030
     36 H161       18.5285   85.5425   45.9931 H         1 SUB1        0.048
     37 H162       17.0927   85.9124   44.9791 H         1 SUB1        0.048
@<TRIPOS>BOND
     1    2    1 1  
     2    1    9 1  
     3    1   13 1  
     4    3    2 2  
     5    2   12 1  
     6    8    3 1  
     7    4    5 ar 
     8    4    8 ar 
     9    5    6 ar 
    10    5   10 1  
    11    6    7 ar 
    12    6   11 1  
    13    7    9 ar 
    14    8    9 ar 
    15   13   14 1  
    16   14   15 1  
    17   15   16 1  
    18   16   17 1  
    19   17   18 2  
    20   17   19 2  
    21    4   20 1  
    22    7   21 1  
    23   10   22 1  
    24   10   23 1  
    25   10   24 1  
    26   11   25 1  
    27   11   26 1  
    28   11   27 1  
    29   12   28 1  
    30   12   29 1  
    31   13   30 1  
    32   13   31 1  
    33   14   32 1  
    34   14   33 1  
    35   15   34 1  
    36   15   35 1  
    37   16   36 1  
    38   16   37 1  
@<TRIPOS>SUBSTRUCTURE
     1 SUB1        1 GROUP

