### 
### Created by X-TOOL on Mon Oct 24 21:55:15 2005
### 

@<TRIPOS>MOLECULE
1c5t_ligand
   20    21     1     0     0
SMALL
GAST_HUCK


@<TRIPOS>ATOM
      1 C0         46.0350   18.3120   54.2970 C.cat     1 SUB1        0.333
      2 C1         45.6910   19.3400   53.4410 C.2       1 SUB1        0.249
      3 N1         46.7870   18.6030   55.3100 N.pl3     1 SUB1       -0.198
      4 N2         45.5950   17.1170   54.0300 N.pl3     1 SUB1       -0.198
      5 S2         44.8720   18.9810   51.8860 S.3       1 SUB1        0.042
      6 C3         44.7830   20.6750   51.4060 C.ar      1 SUB1        0.112
      7 C4         45.3740   21.3960   52.4370 C.ar      1 SUB1        0.006
      8 C5         45.8550   20.7030   53.5260 C.2       1 SUB1        0.003
      9 N6         44.2810   21.1930   50.3030 N.ar      1 SUB1       -0.288
     10 C7         44.3460   22.5100   50.1950 C.ar      1 SUB1        0.001
     11 C8         44.9170   23.3330   51.1690 C.ar      1 SUB1       -0.044
     12 C9         45.4390   22.7660   52.3180 C.ar      1 SUB1       -0.047
     13 H31        47.0979   19.5736   55.4586 H         1 SUB1        0.193
     14 H32        47.0743   17.8639   55.9673 H         1 SUB1        0.193
     15 H41        44.9995   16.9600   53.2044 H         1 SUB1        0.193
     16 H42        45.8422   16.3280   54.6442 H         1 SUB1        0.193
     17 H81        46.3238   21.1913   54.3791 H         1 SUB1        0.048
     18 H101       43.9354   22.9741   49.3056 H         1 SUB1        0.078
     19 H111       44.9508   24.4070   51.0256 H         1 SUB1        0.064
     20 H121       45.8825   23.3776   53.0954 H         1 SUB1        0.069
@<TRIPOS>BOND
     1    1    4 1  
     2    1    3 1  
     3    1    2 1  
     4    2    8 2  
     5    2    5 1  
     6    5    6 1  
     7    6    9 ar 
     8    6    7 ar 
     9    7   12 ar 
    10    7    8 1  
    11   12   11 ar 
    12   11   10 ar 
    13   10    9 ar 
    14    3   13 1  
    15    3   14 1  
    16    4   15 1  
    17    4   16 1  
    18    8   17 1  
    19   10   18 1  
    20   11   19 1  
    21   12   20 1  
@<TRIPOS>SUBSTRUCTURE
     1 SUB1        1 GROUP

