### 
### Created by X-TOOL on Tue Oct 25 00:59:53 2005
### 

@<TRIPOS>MOLECULE
1syi_ligand
   30    31     1     0     0
SMALL
GAST_HUCK


@<TRIPOS>ATOM
      1 C1         20.8260   14.5010   57.5680 C.3       1 SUB1        0.116
      2 N1         20.8810   13.0440   57.5190 N.am      1 SUB1       -0.184
      3 C2         22.2080   12.3740   57.4970 C.2       1 SUB1        0.325
      4 N2         22.2400   11.0200   57.4930 N.am      1 SUB1       -0.189
      5 C3         19.7250   12.2500   57.6040 C.2       1 SUB1        0.068
      6 O1         23.2100   13.1160   57.4860 O.2       1 SUB1       -0.384
      7 C4         19.7900   10.8900   57.6220 C.2       1 SUB1        0.018
      8 C5         21.1160   10.2230   57.5340 C.2       1 SUB1        0.179
      9 O2         21.1840    8.9800   57.4860 O.2       1 SUB1       -0.418
     10 C6         18.2910   12.7570   57.6120 C.3       1 SUB1        0.010
     11 C7         17.4400   11.4640   57.6990 C.3       1 SUB1       -0.038
     12 C8         18.4250   10.2590   57.6340 C.3       1 SUB1       -0.037
     13 C9         21.1450   15.0390   58.9950 C.3       1 SUB1        0.042
     14 C10        21.5240   16.5440   58.8350 C.2       1 SUB1        0.079
     15 O3         22.4710   16.8500   58.0640 O.co2     1 SUB1       -0.561
     16 O4         20.8510   17.3600   59.5430 O.co2     1 SUB1       -0.561
     17 N3         20.0300   14.7180   59.9580 N.4       1 SUB1        0.240
     18 H11        19.8167   14.8301   57.2798 H         1 SUB1        0.070
     19 H12        21.5614   14.9101   56.8596 H         1 SUB1        0.070
     20 H41        23.1330   10.5713   57.4582 H         1 SUB1        0.225
     21 H101       18.0667   13.3119   56.6891 H         1 SUB1        0.049
     22 H102       18.1095   13.4045   58.4825 H         1 SUB1        0.049
     23 H111       16.7344   11.4198   56.8563 H         1 SUB1        0.030
     24 H112       16.8815   11.4434   58.6464 H         1 SUB1        0.030
     25 H121       18.3042    9.6100   58.5139 H         1 SUB1        0.030
     26 H122       18.2602    9.6709   56.7191 H         1 SUB1        0.030
     27 H131       22.0379   14.5172   59.3699 H         1 SUB1        0.109
     28 H171       20.2613   15.0763   60.8713 H         1 SUB1        0.202
     29 H172       19.9082   13.7187   60.0101 H         1 SUB1        0.202
     30 H173       19.1751   15.1444   59.6365 H         1 SUB1        0.202
@<TRIPOS>BOND
     1    1    2 1  
     2    1   13 1  
     3    2    3 am 
     4    2    5 1  
     5    3    4 am 
     6    3    6 2  
     7    4    8 am 
     8    5    7 2  
     9    5   10 1  
    10    7    8 1  
    11    7   12 1  
    12    8    9 2  
    13   10   11 1  
    14   11   12 1  
    15   13   14 1  
    16   13   17 1  
    17   14   15 2  
    18   14   16 2  
    19    1   18 1  
    20    1   19 1  
    21    4   20 1  
    22   10   21 1  
    23   10   22 1  
    24   11   23 1  
    25   11   24 1  
    26   12   25 1  
    27   12   26 1  
    28   13   27 1  
    29   17   28 1  
    30   17   29 1  
    31   17   30 1  
@<TRIPOS>SUBSTRUCTURE
     1 SUB1        1 GROUP

