2d1n_ligand
  -I-interpret- 

 77 77  0  0  0  0  0  0  0  0999 V2000
  -40.6710   20.3930  -12.0380 C   0  0  0  0  0
  -40.6880   21.7610  -12.4150 C   0  0  0  0  0
  -41.8090   22.3270  -13.1020 C   0  0  0  0  0
  -42.9470   21.4660  -13.4070 C   0  0  0  0  0
  -42.8990   20.0790  -13.0130 C   0  0  0  0  0
  -41.7750   19.5560  -12.3390 C   0  0  0  0  0
  -41.7100   23.8130  -13.4650 C   0  0  0  0  0
  -41.0780   23.9970  -14.8630 C   0  0  0  0  0
  -41.1350   25.4320  -15.4130 C   0  0  0  0  0
  -42.5330   26.0040  -15.6200 C   0  0  0  0  0
  -42.6290   27.1870  -16.5850 C   0  0  0  0  0
  -43.8750   27.9960  -16.2290 C   0  0  0  0  0
  -44.1100   29.2020  -17.1330 C   0  0  0  0  0
  -43.6310   30.5060  -16.4790 C   0  0  0  0  0
  -43.8520   31.7420  -17.3520 C   0  0  0  0  0
  -43.1840   31.6650  -18.7110 C   0  0  0  0  0
  -44.0650   31.3620  -19.7410 N   0  0  0  0  0
  -43.6920   31.2260  -21.1700 C   0  0  0  0  0
  -41.9840   31.8470  -18.8900 O   0  0  0  0  0
  -44.9130   31.6930  -21.9970 C   0  0  0  0  0
  -43.3740   29.7390  -21.4490 C   0  0  0  0  0
  -42.2890   29.2500  -20.8200 N   0  0  0  0  0
  -44.5550   32.1360  -23.4420 C   0  0  0  0  0
  -44.9430   31.2080  -24.6190 C   0  0  0  0  0
  -45.3310   31.9710  -25.9040 C   0  0  0  0  0
  -44.3190   31.7620  -26.9690 N   0  3  0  0  0
  -44.1960   21.9610  -14.1240 C   0  0  0  0  0
  -45.4690   21.3370  -13.5110 N   0  0  0  0  0
  -46.2350   22.1090  -12.5790 C   0  3  0  0  0
  -45.6870   23.2750  -12.0010 N   0  0  0  0  0
  -47.4240   21.7480  -12.2510 N   0  0  0  0  0
  -41.9450   27.9130  -21.0660 O   0  0  0  0  0
  -44.0360   29.0280  -22.2050 O   0  0  0  0  0
  -39.8062   19.9844  -11.5152 H   0  0  0  0  0
  -39.8318   22.3923  -12.1771 H   0  0  0  0  0
  -43.7422   19.4263  -13.2390 H   0  0  0  0  0
  -41.7555   18.5055  -12.0490 H   0  0  0  0  0
  -41.0824   24.3133  -12.7275 H   0  0  0  0  0
  -42.7130   24.2395  -13.4744 H   0  0  0  0  0
  -41.6458   23.3714  -15.5517 H   0  0  0  0  0
  -40.0239   23.7352  -14.7706 H   0  0  0  0  0
  -40.6631   25.4057  -16.3952 H   0  0  0  0  0
  -40.6478   26.0665  -14.6726 H   0  0  0  0  0
  -42.8637   26.3705  -14.6482 H   0  0  0  0  0
  -43.1334   25.2034  -16.0522 H   0  0  0  0  0
  -42.6972   26.8275  -17.6118 H   0  0  0  0  0
  -41.7402   27.8122  -16.4999 H   0  0  0  0  0
  -43.7374   28.3731  -15.2156 H   0  0  0  0  0
  -44.7338   27.3343  -16.3424 H   0  0  0  0  0
  -45.1803   29.2859  -17.3213 H   0  0  0  0  0
  -43.5476   29.0541  -18.0549 H   0  0  0  0  0
  -42.5585   30.4126  -16.3082 H   0  0  0  0  0
  -44.2059   30.6441  -15.5633 H   0  0  0  0  0
  -43.4168   32.5915  -16.8256 H   0  0  0  0  0
  -44.9249   31.8288  -17.5237 H   0  0  0  0  0
  -45.0451   31.2221  -19.4955 H   0  0  0  0  0
  -42.8169   31.8214  -21.4303 H   0  0  0  0  0
  -45.3409   32.5565  -21.4877 H   0  0  0  0  0
  -45.5967   30.8477  -22.0750 H   0  0  0  0  0
  -41.7376   29.8304  -20.1880 H   0  0  0  0  0
  -43.4662   32.1822  -23.4635 H   0  0  0  0  0
  -45.1194   33.0540  -23.6059 H   0  0  0  0  0
  -45.8124   30.6294  -24.3068 H   0  0  0  0  0
  -44.0728   30.5946  -24.8527 H   0  0  0  0  0
  -45.3863   33.0356  -25.6767 H   0  0  0  0  0
  -46.2930   31.5986  -26.2562 H   0  0  0  0  0
  -44.5969   32.2748  -27.8058 H   0  0  0  0  0
  -43.4127   32.1010  -26.6464 H   0  0  0  0  0
  -44.2542   30.7671  -27.1843 H   0  0  0  0  0
  -44.1349   21.6721  -15.1732 H   0  0  0  0  0
  -44.2527   23.0446  -14.0206 H   0  0  0  0  0
  -45.7588   20.3926  -13.7652 H   0  0  0  0  0
  -44.7422   23.5704  -12.2468 H   0  0  0  0  0
  -46.2360   23.8218  -11.3377 H   0  0  0  0  0
  -47.8307   20.9045  -12.6554 H   0  0  0  0  0
  -47.9610   22.3050  -11.5863 H   0  0  0  0  0
  -42.6707   27.3431  -20.8011 H   0  0  0  0  0
  1  2  4  0  0  0
  1  6  4  0  0  0
  2  3  4  0  0  0
  3  4  4  0  0  0
  3  7  1  0  0  0
  4  5  4  0  0  0
  4 27  1  0  0  0
  5  6  4  0  0  0
  7  8  1  0  0  0
  8  9  1  0  0  0
  9 10  1  0  0  0
 10 11  1  0  0  0
 11 12  1  0  0  0
 12 13  1  0  0  0
 13 14  1  0  0  0
 14 15  1  0  0  0
 15 16  1  0  0  0
 16 17  1  0  0  0
 16 19  2  0  0  0
 17 18  1  0  0  0
 18 20  1  0  0  0
 18 21  1  0  0  0
 20 23  1  0  0  0
 21 22  1  0  0  0
 21 33  2  0  0  0
 22 32  1  0  0  0
 23 24  1  0  0  0
 24 25  1  0  0  0
 25 26  1  0  0  0
 27 28  1  0  0  0
 28 29  1  0  0  0
 29 30  1  0  0  0
 29 31  1  0  0  0
  1 34  1  0  0  0
  2 35  1  0  0  0
  5 36  1  0  0  0
  6 37  1  0  0  0
  7 38  1  0  0  0
  7 39  1  0  0  0
  8 40  1  0  0  0
  8 41  1  0  0  0
  9 42  1  0  0  0
  9 43  1  0  0  0
 10 44  1  0  0  0
 10 45  1  0  0  0
 11 46  1  0  0  0
 11 47  1  0  0  0
 12 48  1  0  0  0
 12 49  1  0  0  0
 13 50  1  0  0  0
 13 51  1  0  0  0
 14 52  1  0  0  0
 14 53  1  0  0  0
 15 54  1  0  0  0
 15 55  1  0  0  0
 17 56  1  0  0  0
 18 57  1  0  0  0
 20 58  1  0  0  0
 20 59  1  0  0  0
 22 60  1  0  0  0
 23 61  1  0  0  0
 23 62  1  0  0  0
 24 63  1  0  0  0
 24 64  1  0  0  0
 25 65  1  0  0  0
 25 66  1  0  0  0
 26 67  1  0  0  0
 26 68  1  0  0  0
 26 69  1  0  0  0
 27 70  1  0  0  0
 27 71  1  0  0  0
 28 72  1  0  0  0
 30 73  1  0  0  0
 30 74  1  0  0  0
 31 75  1  0  0  0
 31 76  1  0  0  0
 32 77  1  0  0  0
M  END
$$$$
