### 
### Created by X-TOOL on Sun Jun  3 11:20:05 2007
### 

@<TRIPOS>MOLECULE
2d1n_ligand
   77    77     1     0     0
SMALL
GAST_HUCK


@<TRIPOS>ATOM
      1 C1        -40.6710   20.3930  -12.0380 C.ar      1 SUB1       -0.075
      2 C2        -40.6880   21.7610  -12.4150 C.ar      1 SUB1       -0.067
      3 C3        -41.8090   22.3270  -13.1020 C.ar      1 SUB1       -0.038
      4 C4        -42.9470   21.4660  -13.4070 C.ar      1 SUB1       -0.005
      5 C5        -42.8990   20.0790  -13.0130 C.ar      1 SUB1       -0.064
      6 C6        -41.7750   19.5560  -12.3390 C.ar      1 SUB1       -0.075
      7 C7        -41.7100   23.8130  -13.4650 C.3       1 SUB1       -0.022
      8 C8        -41.0780   23.9970  -14.8630 C.3       1 SUB1       -0.044
      9 C9        -41.1350   25.4320  -15.4130 C.3       1 SUB1       -0.051
     10 C10       -42.5330   26.0040  -15.6200 C.3       1 SUB1       -0.053
     11 C11       -42.6290   27.1870  -16.5850 C.3       1 SUB1       -0.053
     12 C12       -43.8750   27.9960  -16.2290 C.3       1 SUB1       -0.053
     13 C13       -44.1100   29.2020  -17.1330 C.3       1 SUB1       -0.051
     14 C14       -43.6310   30.5060  -16.4790 C.3       1 SUB1       -0.036
     15 C15       -43.8520   31.7420  -17.3520 C.3       1 SUB1        0.037
     16 C16       -43.1840   31.6650  -18.7110 C.2       1 SUB1        0.178
     17 N17       -44.0650   31.3620  -19.7410 N.am      1 SUB1       -0.266
     18 C18       -43.6920   31.2260  -21.1700 C.3       1 SUB1        0.132
     19 O19       -41.9840   31.8470  -18.8900 O.2       1 SUB1       -0.397
     20 C20       -44.9130   31.6930  -21.9970 C.3       1 SUB1       -0.012
     21 C21       -43.3740   29.7390  -21.4490 C.2       1 SUB1        0.224
     22 N22       -42.2890   29.2500  -20.8200 N.am      1 SUB1       -0.162
     23 C23       -44.5550   32.1360  -23.4420 C.3       1 SUB1       -0.044
     24 C24       -44.9430   31.2080  -24.6190 C.3       1 SUB1       -0.012
     25 C25       -45.3310   31.9710  -25.9040 C.3       1 SUB1       -0.035
     26 N26       -44.3190   31.7620  -26.9690 N.4       1 SUB1        0.219
     27 C27       -44.1960   21.9610  -14.1240 C.3       1 SUB1        0.094
     28 N28       -45.4690   21.3370  -13.5110 N.pl3     1 SUB1       -0.262
     29 C29       -46.2350   22.1090  -12.5790 C.cat     1 SUB1        0.290
     30 N30       -45.6870   23.2750  -12.0010 N.pl3     1 SUB1       -0.285
     31 N31       -47.4240   21.7480  -12.2510 N.pl3     1 SUB1       -0.285
     32 O32       -41.9450   27.9130  -21.0660 O.3       1 SUB1       -0.272
     33 O33       -44.0360   29.0280  -22.2050 O.2       1 SUB1       -0.394
     34 H         -39.8062   19.9844  -11.5152 H         1 SUB1        0.054
     35 H         -39.8318   22.3923  -12.1771 H         1 SUB1        0.054
     36 H         -43.7422   19.4263  -13.2390 H         1 SUB1        0.054
     37 H         -41.7555   18.5055  -12.0490 H         1 SUB1        0.054
     38 H         -41.0824   24.3133  -12.7275 H         1 SUB1        0.041
     39 H         -42.7130   24.2395  -13.4744 H         1 SUB1        0.041
     40 H         -41.6458   23.3714  -15.5517 H         1 SUB1        0.029
     41 H         -40.0239   23.7352  -14.7706 H         1 SUB1        0.029
     42 H         -40.6631   25.4057  -16.3952 H         1 SUB1        0.027
     43 H         -40.6478   26.0665  -14.6726 H         1 SUB1        0.027
     44 H         -42.8637   26.3705  -14.6482 H         1 SUB1        0.026
     45 H         -43.1334   25.2034  -16.0522 H         1 SUB1        0.026
     46 H         -42.6972   26.8275  -17.6118 H         1 SUB1        0.026
     47 H         -41.7402   27.8122  -16.4999 H         1 SUB1        0.026
     48 H         -43.7374   28.3731  -15.2156 H         1 SUB1        0.026
     49 H         -44.7338   27.3343  -16.3424 H         1 SUB1        0.026
     50 H         -45.1803   29.2859  -17.3213 H         1 SUB1        0.027
     51 H         -43.5476   29.0541  -18.0549 H         1 SUB1        0.027
     52 H         -42.5585   30.4126  -16.3082 H         1 SUB1        0.029
     53 H         -44.2059   30.6441  -15.5633 H         1 SUB1        0.029
     54 H         -43.4168   32.5915  -16.8256 H         1 SUB1        0.050
     55 H         -44.9249   31.8288  -17.5237 H         1 SUB1        0.050
     56 H         -45.0451   31.2221  -19.4955 H         1 SUB1        0.188
     57 H         -42.8169   31.8214  -21.4303 H         1 SUB1        0.080
     58 H         -45.3409   32.5565  -21.4877 H         1 SUB1        0.031
     59 H         -45.5967   30.8477  -22.0750 H         1 SUB1        0.031
     60 H         -41.7376   29.8304  -20.1880 H         1 SUB1        0.222
     61 H         -43.4662   32.1822  -23.4635 H         1 SUB1        0.027
     62 H         -45.1194   33.0540  -23.6059 H         1 SUB1        0.027
     63 H         -45.8124   30.6294  -24.3068 H         1 SUB1        0.032
     64 H         -44.0728   30.5946  -24.8527 H         1 SUB1        0.032
     65 H         -45.3863   33.0356  -25.6767 H         1 SUB1        0.081
     66 H         -46.2930   31.5986  -26.2562 H         1 SUB1        0.081
     67 H         -44.5969   32.2748  -27.8058 H         1 SUB1        0.199
     68 H         -43.4127   32.1010  -26.6464 H         1 SUB1        0.199
     69 H         -44.2542   30.7671  -27.1843 H         1 SUB1        0.199
     70 H         -44.1349   21.6721  -15.1732 H         1 SUB1        0.084
     71 H         -44.2527   23.0446  -14.0206 H         1 SUB1        0.084
     72 H         -45.7588   20.3926  -13.7652 H         1 SUB1        0.266
     73 H         -44.7422   23.5704  -12.2468 H         1 SUB1        0.262
     74 H         -46.2360   23.8218  -11.3377 H         1 SUB1        0.262
     75 H         -47.8307   20.9045  -12.6554 H         1 SUB1        0.262
     76 H         -47.9610   22.3050  -11.5863 H         1 SUB1        0.262
     77 H         -42.6707   27.3431  -20.8011 H         1 SUB1        0.249
@<TRIPOS>BOND
     1    1    2 ar 
     2    1    6 ar 
     3    2    3 ar 
     4    3    4 ar 
     5    3    7 1  
     6    4    5 ar 
     7    4   27 1  
     8    5    6 ar 
     9    7    8 1  
    10    8    9 1  
    11    9   10 1  
    12   10   11 1  
    13   11   12 1  
    14   12   13 1  
    15   13   14 1  
    16   14   15 1  
    17   15   16 1  
    18   16   17 am 
    19   16   19 2  
    20   17   18 1  
    21   18   20 1  
    22   18   21 1  
    23   20   23 1  
    24   21   22 am 
    25   21   33 2  
    26   22   32 1  
    27   23   24 1  
    28   24   25 1  
    29   25   26 1  
    30   27   28 1  
    31   28   29 1  
    32   29   30 1  
    33   29   31 1  
    34    1   34 1  
    35    2   35 1  
    36    5   36 1  
    37    6   37 1  
    38    7   38 1  
    39    7   39 1  
    40    8   40 1  
    41    8   41 1  
    42    9   42 1  
    43    9   43 1  
    44   10   44 1  
    45   10   45 1  
    46   11   46 1  
    47   11   47 1  
    48   12   48 1  
    49   12   49 1  
    50   13   50 1  
    51   13   51 1  
    52   14   52 1  
    53   14   53 1  
    54   15   54 1  
    55   15   55 1  
    56   17   56 1  
    57   18   57 1  
    58   20   58 1  
    59   20   59 1  
    60   22   60 1  
    61   23   61 1  
    62   23   62 1  
    63   24   63 1  
    64   24   64 1  
    65   25   65 1  
    66   25   66 1  
    67   26   67 1  
    68   26   68 1  
    69   26   69 1  
    70   27   70 1  
    71   27   71 1  
    72   28   72 1  
    73   30   73 1  
    74   30   74 1  
    75   31   75 1  
    76   31   76 1  
    77   32   77 1  
@<TRIPOS>SUBSTRUCTURE
     1 SUB1        1 GROUP

