1g2l_ligand
  -I-interpret- 

 71 75  0  0  0  0  0  0  0  0999 V2000
    9.8050    6.1680   27.8830 N   0  0  0  0  0
   11.8030    6.9570   27.5440 N   0  0  0  0  0
   10.5600    6.9200   27.0920 C   0  3  0  0  0
   10.0700    7.6550   25.9890 C   0  0  0  0  0
    8.6340    7.6730   25.6770 C   0  0  0  0  0
    8.1090    8.4200   24.5770 C   0  0  0  0  0
    8.9980    9.1980   23.7180 C   0  0  0  0  0
   10.4200    9.2060   23.9840 C   0  0  0  0  0
   10.9520    8.4510   25.0980 C   0  0  0  0  0
    8.5040    9.9850   22.5870 N   0  0  0  0  0
    7.2940    9.7650   21.7210 C   0  0  0  0  0
    6.5370    7.3620   21.6010 N   0  0  0  0  0
    7.2580    8.3960   20.9890 C   0  0  0  0  0
    7.9360    8.1760   19.7600 N   0  0  0  0  0
    7.5930    6.8280   19.5870 C   0  0  0  0  0
    6.7510    6.3530   20.7000 C   0  0  0  0  0
    7.9540    5.9060   18.5060 C   0  0  0  0  0
    7.4880    4.5630   18.5500 C   0  0  0  0  0
    6.6460    4.0400   19.6450 C   0  0  0  0  0
    6.2730    4.9700   20.7330 C   0  0  0  0  0
    8.7750    9.0870   18.9000 C   0  0  0  0  0
    5.1230    1.9340   20.5190 C   0  0  0  0  0
    6.5230    1.7830   21.0980 C   0  0  0  0  0
    6.3350    2.4540   19.7270 C   0  0  0  0  0
    6.2810    1.8540   18.2440 C   0  0  0  0  0
    5.2320    2.0200   17.4660 N   0  0  0  0  0
    7.3590    0.4090   16.3680 N   0  0  0  0  0
    7.5180    1.1090   17.6200 C   0  0  0  0  0
    8.8280    1.1140   18.2460 C   0  0  0  0  0
    9.9220    0.4210   17.6060 C   0  0  0  0  0
    9.7490   -0.2790   16.3560 C   0  0  0  0  0
    8.4590   -0.2850   15.7310 C   0  0  0  0  0
    4.0020    2.7470   17.8900 O   0  0  0  0  0
    3.3470    3.3120   16.7420 C   0  0  0  0  0
    3.9830    4.6760   16.3910 C   0  0  0  0  0
    4.4680    4.8320   15.2560 O   0  0  0  0  0
    3.9950    5.6840   17.3550 O   0  0  0  0  0
    4.3250    8.0300   17.9380 C   0  0  0  0  0
    4.6150    6.9140   16.9160 C   0  0  0  0  0
   10.2316    5.6590   28.6703 H   0  0  0  0  0
    8.7924    6.0934   27.7096 H   0  0  0  0  0
   12.5181    7.5011   27.0405 H   0  0  0  0  0
   12.0555    6.4417   28.3994 H   0  0  0  0  0
    7.9531    7.1033   26.2990 H   0  0  0  0  0
    7.0433    8.4090   24.3789 H   0  0  0  0  0
   11.0870    9.7776   23.3488 H   0  0  0  0  0
   12.0194    8.4668   25.2865 H   0  0  0  0  0
    8.3525   10.9758   22.9892 H   0  0  0  0  0
    6.3962    9.8264   22.3535 H   0  0  0  0  0
    7.2664   10.5522   20.9533 H   0  0  0  0  0
    8.5702    6.2446   17.6810 H   0  0  0  0  0
    7.7632    3.8930   17.7435 H   0  0  0  0  0
    5.6486    4.6289   21.5509 H   0  0  0  0  0
    8.8171   10.0820   19.3672 H   0  0  0  0  0
    9.7963    8.6875   18.8155 H   0  0  0  0  0
    8.3246    9.1794   17.9008 H   0  0  0  0  0
    4.5786    1.0500   20.1556 H   0  0  0  0  0
    4.4180    2.6527   20.9620 H   0  0  0  0  0
    6.8313    2.3923   21.9603 H   0  0  0  0  0
    6.9920    0.7896   21.1539 H   0  0  0  0  0
    8.9837    1.6329   19.1849 H   0  0  0  0  0
   10.8983    0.4269   18.0770 H   0  0  0  0  0
   10.5843   -0.7939   15.8953 H   0  0  0  0  0
    8.3084   -0.8037   14.7912 H   0  0  0  0  0
    3.4597    2.6369   15.8809 H   0  0  0  0  0
    2.2801    3.4650   16.9615 H   0  0  0  0  0
    4.8002    8.9612   17.5959 H   0  0  0  0  0
    3.2400    8.1908   18.0200 H   0  0  0  0  0
    4.7389    7.7564   18.9197 H   0  0  0  0  0
    5.7036    6.7760   16.8392 H   0  0  0  0  0
    4.2047    7.2105   15.9395 H   0  0  0  0  0
  3  1  1  0  0  0
  4  3  1  0  0  0
  5  4  4  0  0  0
  9  4  4  0  0  0
  6  5  4  0  0  0
  7  6  4  0  0  0
  7  8  4  0  0  0
 10  7  1  0  0  0
  8  9  4  0  0  0
 11 10  1  0  0  0
 13 11  1  0  0  0
 14 13  1  0  0  0
 15 14  1  0  0  0
 14 21  1  0  0  0
 16 15  4  0  0  0
 17 15  4  0  0  0
 20 16  4  0  0  0
 18 17  4  0  0  0
 19 18  4  0  0  0
 19 20  4  0  0  0
 24 19  1  0  0  0
 22 23  1  0  0  0
 24 22  1  0  0  0
 23 24  1  0  0  0
 24 25  1  0  0  0
 25 26  2  0  0  0
 25 28  1  0  0  0
 26 33  1  0  0  0
 28 29  4  0  0  0
 29 30  4  0  0  0
 30 31  4  0  0  0
 31 32  4  0  0  0
 33 34  1  0  0  0
 34 35  1  0  0  0
 35 36  2  0  0  0
 35 37  1  0  0  0
 37 39  1  0  0  0
 39 38  1  0  0  0
 32 27  4  0  0  0
 28 27  4  0  0  0
 16 12  1  0  0  0
 13 12  2  0  0  0
  3  2  1  0  0  0
  1 40  1  0  0  0
  1 41  1  0  0  0
  2 42  1  0  0  0
  2 43  1  0  0  0
  5 44  1  0  0  0
  6 45  1  0  0  0
  8 46  1  0  0  0
  9 47  1  0  0  0
 10 48  1  0  0  0
 11 49  1  0  0  0
 11 50  1  0  0  0
 17 51  1  0  0  0
 18 52  1  0  0  0
 20 53  1  0  0  0
 21 54  1  0  0  0
 21 55  1  0  0  0
 21 56  1  0  0  0
 22 57  1  0  0  0
 22 58  1  0  0  0
 23 59  1  0  0  0
 23 60  1  0  0  0
 29 61  1  0  0  0
 30 62  1  0  0  0
 31 63  1  0  0  0
 32 64  1  0  0  0
 34 65  1  0  0  0
 34 66  1  0  0  0
 38 67  1  0  0  0
 38 68  1  0  0  0
 38 69  1  0  0  0
 39 70  1  0  0  0
 39 71  1  0  0  0
M  END
$$$$
