### 
### Created by X-TOOL on Mon Oct 24 23:10:13 2005
### 

@<TRIPOS>MOLECULE
1olu_ligand
   42    43     1     0     0
SMALL
GAST_HUCK


@<TRIPOS>ATOM
      1 N1         77.0790    0.5310   11.4280 N.ar      1 SUB1       -0.294
      2 C2         77.3800    1.7710   11.9270 C.ar      1 SUB1        0.076
      3 C2A        77.5030    1.8960   13.4600 C.3       1 SUB1       -0.003
      4 N3         77.5600    2.8440   11.1510 N.ar      1 SUB1       -0.261
      5 C4         77.4350    2.6700    9.7750 C.ar      1 SUB1        0.122
      6 N4         77.6240    3.8330    9.0130 N.pl3     1 SUB1       -0.319
      7 C5         77.1310    1.3890    9.1570 C.ar      1 SUB1        0.033
      8 C6         76.9590    0.3330   10.0860 C.ar      1 SUB1        0.007
      9 C35        77.0060    1.1980    7.6330 C.3       1 SUB1        0.056
     10 N3         75.7670    1.7700    7.1130 N.2       1 SUB1       -0.275
     11 C2         75.7300    3.0240    6.5200 C.2       1 SUB1        0.135
     12 S1         74.0750    3.4240    6.0280 S.3       1 SUB1        0.116
     13 C5         73.4920    1.8830    6.6380 C.2       1 SUB1        0.173
     14 C4         74.4460    1.0630    7.1880 C.2       1 SUB1        0.131
     15 C4A        74.2670   -0.3480    7.7960 C.3       1 SUB1        0.023
     16 C5A        72.0000    1.7180    6.4750 C.3       1 SUB1        0.083
     17 C5B        71.2530    2.7750    7.3400 C.3       1 SUB1        0.111
     18 O5G        69.8500    2.4930    7.2950 O.3       1 SUB1       -0.249
     19 P1         68.8300    3.5820    7.7370 P.3       1 SUB1        0.373
     20 O11        68.8400    4.7800    6.7130 O.3       1 SUB1       -0.257
     21 O12        69.1910    4.0700    9.1150 O.co2     1 SUB1       -0.457
     22 O13        67.4920    2.9380    7.7290 O.co2     1 SUB1       -0.457
     23 P2         68.5510    4.9380    5.1320 P.3       1 SUB1        0.158
     24 O21        67.9730    6.3530    4.9750 O.co2     1 SUB1       -0.616
     25 O22        69.9150    4.8070    4.5000 O.co2     1 SUB1       -0.616
     26 O23        67.5900    3.9370    4.6300 O.co2     1 SUB1       -0.616
     27 H31        77.3229    0.9148   13.9235 H         1 SUB1        0.045
     28 H32        76.7601    2.6180   13.8298 H         1 SUB1        0.045
     29 H33        78.5136    2.2442   13.7196 H         1 SUB1        0.045
     30 H61        77.5493    3.7939    7.9865 H         1 SUB1        0.179
     31 H62        77.8374    4.7258    9.4802 H         1 SUB1        0.179
     32 H81        76.7255   -0.6597    9.7184 H         1 SUB1        0.079
     33 H91        77.0233    0.1217    7.4067 H         1 SUB1        0.056
     34 H92        77.8585    1.6898    7.1417 H         1 SUB1        0.056
     35 H111       76.5948    3.6703    6.3773 H         1 SUB1        0.166
     36 H151       73.2092   -0.6430    7.7328 H         1 SUB1        0.060
     37 H152       74.5819   -0.3358    8.8499 H         1 SUB1        0.060
     38 H153       74.8826   -1.0687    7.2377 H         1 SUB1        0.060
     39 H161       71.7070    0.7085    6.7990 H         1 SUB1        0.077
     40 H162       71.7310    1.8562    5.4174 H         1 SUB1        0.077
     41 H171       71.4416    3.7819    6.9394 H         1 SUB1        0.069
     42 H172       71.6086    2.7214    8.3796 H         1 SUB1        0.069
@<TRIPOS>BOND
     1    1    2 ar 
     2    1    8 ar 
     3    2    3 1  
     4    2    4 ar 
     5    4    5 ar 
     6    5    6 1  
     7    5    7 ar 
     8    7    8 ar 
     9    7    9 1  
    10    9   10 1  
    11   10   11 2  
    12   10   14 1  
    13   11   12 1  
    14   12   13 1  
    15   13   14 2  
    16   13   16 1  
    17   14   15 1  
    18   16   17 1  
    19   17   18 1  
    20   18   19 1  
    21   19   20 1  
    22   19   21 2  
    23   19   22 2  
    24   20   23 1  
    25   23   24 2  
    26   23   25 2  
    27   23   26 2  
    28    3   27 1  
    29    3   28 1  
    30    3   29 1  
    31    6   30 1  
    32    6   31 1  
    33    8   32 1  
    34    9   33 1  
    35    9   34 1  
    36   11   35 1  
    37   15   36 1  
    38   15   37 1  
    39   15   38 1  
    40   16   39 1  
    41   16   40 1  
    42   17   41 1  
    43   17   42 1  
@<TRIPOS>SUBSTRUCTURE
     1 SUB1        1 GROUP

