1lgw_ligand
  -I-interpret- 

 14 14  0  0  0  0  0  0  0  0999 V2000
   25.4569    5.1888    6.3967 H   0  0  0  0  0
   26.7756    7.2601    6.7362 H   0  0  0  0  0
   25.5204    4.1285    4.1360 H   0  0  0  0  0
   28.1120    8.2820    4.9346 H   0  0  0  0  0
   28.9759    8.0948    2.6302 H   0  0  0  0  0
   28.5504    6.6875    1.6196 H   0  0  0  0  0
   26.0520    5.6090    5.5940 C   0  0  0  0  0
   26.7970    6.7770    5.7660 C   0  0  0  0  0
   26.1130    5.0130    4.3400 C   0  0  0  0  0
   27.5720    7.3600    4.7520 C   0  0  0  0  0
   26.9300    5.5430    3.3420 C   0  0  0  0  0
   27.6380    6.7380    3.5080 C   0  0  0  0  0
   28.4580    7.2140    2.5000 N   0  0  0  0  0
   26.9420    4.9350    2.2100 F   0  0  0  0  0
  7  1  1  0  0  0
  8  2  1  0  0  0
  9  3  1  0  0  0
 10  4  1  0  0  0
 13  5  1  0  0  0
 13  6  1  0  0  0
  7  9  4  0  0  0
  8  7  4  0  0  0
 10  8  4  0  0  0
 12 10  4  0  0  0
 12 13  1  0  0  0
 12 11  4  0  0  0
 11  9  4  0  0  0
 11 14  1  0  0  0
M  END
$$$$
