### 
### Created by X-TOOL on Mon Oct 24 22:51:45 2005
### 

@<TRIPOS>MOLECULE
1lgw_ligand
   14    14     1     0     0
SMALL
GAST_HUCK


@<TRIPOS>ATOM
      1 H71        25.4569    5.1888    6.3967 H         1 SUB1        0.049
      2 H81        26.7756    7.2601    6.7362 H         1 SUB1        0.055
      3 H91        25.5204    4.1285    4.1360 H         1 SUB1        0.057
      4 H101       28.1120    8.2820    4.9346 H         1 SUB1        0.050
      5 H131       28.9759    8.0948    2.6302 H         1 SUB1        0.171
      6 H132       28.5504    6.6875    1.6196 H         1 SUB1        0.171
      7 C4         26.0520    5.6090    5.5940 C.ar      1 SUB1       -0.077
      8 C5         26.7970    6.7770    5.7660 C.ar      1 SUB1       -0.078
      9 C3         26.1130    5.0130    4.3400 C.ar      1 SUB1       -0.040
     10 C6         27.5720    7.3600    4.7520 C.ar      1 SUB1       -0.046
     11 C2         26.9300    5.5430    3.3420 C.ar      1 SUB1        0.148
     12 C1         27.6380    6.7380    3.5080 C.ar      1 SUB1        0.070
     13 N          28.4580    7.2140    2.5000 N.pl3     1 SUB1       -0.337
     14 F2         26.9420    4.9350    2.2100 F         1 SUB1       -0.193
@<TRIPOS>BOND
     1    7    1 1  
     2    8    2 1  
     3    9    3 1  
     4   10    4 1  
     5   13    5 1  
     6   13    6 1  
     7    7    9 ar 
     8    8    7 ar 
     9   10    8 ar 
    10   12   10 ar 
    11   12   13 1  
    12   12   11 ar 
    13   11    9 ar 
    14   11   14 1  
@<TRIPOS>SUBSTRUCTURE
     1 SUB1        1 GROUP

