1gpn_ligand
  -I-interpret- 

 40 43  0  0  0  0  0  0  0  0999 V2000
    2.7351   68.2804   60.0590 H   0  0  0  0  0
   -0.4568   69.1247   62.7175 H   0  0  0  0  0
    0.8785   68.2381   64.5483 H   0  0  0  0  0
    5.1204   68.0521   61.2530 H   0  0  0  0  0
    4.3968   66.4624   60.8335 H   0  0  0  0  0
    6.3903   66.5755   62.6400 H   0  0  0  0  0
    5.4022   64.2859   62.4368 H   0  0  0  0  0
    5.4154   70.5127   65.3357 H   0  0  0  0  0
    5.7130   68.9850   66.2325 H   0  0  0  0  0
    4.8718   69.2235   63.2933 H   0  0  0  0  0
    6.5103   68.8056   63.8994 H   0  0  0  0  0
    5.6201   66.7745   64.9762 H   0  0  0  0  0
    3.7547   67.4331   66.6004 H   0  0  0  0  0
    2.2518   67.8233   66.0541 H   0  0  0  0  0
    2.0451   65.5458   64.4991 H   0  0  0  0  0
    3.2671   65.3732   65.8043 H   0  0  0  0  0
    4.0679   62.5628   63.4371 H   0  0  0  0  0
    2.4012   63.1064   63.8285 H   0  0  0  0  0
    3.6180   62.9264   65.1376 H   0  0  0  0  0
    3.0503   69.9089   65.0422 H   0  0  0  0  0
    3.4898   69.8545   66.7831 H   0  0  0  0  0
    1.0680   68.7710   61.1630 C   0  0  0  0  0
    0.4400   69.2080   60.1960 O   0  0  0  0  0
    2.3530   68.2650   60.9830 N   0  0  0  0  0
    0.5440   68.7450   62.5170 C   0  0  0  0  0
    1.3020   68.2450   63.5450 C   0  0  0  0  0
    2.6350   67.7280   63.3560 C   0  0  0  0  0
    3.1490   67.7340   62.0130 C   0  0  0  0  0
    4.5200   67.2110   61.6300 C   0  0  0  0  0
    5.3120   66.5280   62.8520 C   0  0  0  0  0
    4.8890   65.0460   63.0240 C   0  0  0  0  0
    5.1250   69.4560   65.4310 C   0  0  0  0  0
    5.4320   68.7380   64.1060 C   0  0  0  0  0
    5.0240   67.2560   64.1870 C   0  0  0  0  0
    3.5160   67.1410   64.5690 C   0  0  0  0  0
    3.2390   67.8790   65.8580 N   0  3  0  0  0
    3.1120   65.6420   64.7490 C   0  0  0  0  0
    3.8870   64.6480   63.8920 C   0  0  0  0  0
    3.4650   63.2140   64.0870 C   0  0  0  0  0
    3.6510   69.3860   65.8010 C   0  0  0  0  0
 24  1  1  0  0  0
 25  2  1  0  0  0
 26  3  1  0  0  0
 29  4  1  0  0  0
 29  5  1  0  0  0
 30  6  1  0  0  0
 31  7  1  0  0  0
 32  8  1  0  0  0
 32  9  1  0  0  0
 33 10  1  0  0  0
 33 11  1  0  0  0
 34 12  1  0  0  0
 36 13  1  0  0  0
 36 14  1  0  0  0
 37 15  1  0  0  0
 37 16  1  0  0  0
 39 17  1  0  0  0
 39 18  1  0  0  0
 39 19  1  0  0  0
 40 20  1  0  0  0
 40 21  1  0  0  0
 25 22  1  0  0  0
 24 22  1  0  0  0
 22 23  2  0  0  0
 28 24  1  0  0  0
 29 28  1  0  0  0
 27 28  2  0  0  0
 35 27  1  0  0  0
 27 26  1  0  0  0
 26 25  2  0  0  0
 35 37  1  0  0  0
 35 36  1  0  0  0
 34 35  1  0  0  0
 33 34  1  0  0  0
 34 30  1  0  0  0
 30 31  1  0  0  0
 30 29  1  0  0  0
 31 38  2  0  0  0
 38 39  1  0  0  0
 37 38  1  0  0  0
 32 33  1  0  0  0
 32 40  1  0  0  0
 40 36  1  0  0  0
M  END
$$$$
