### 
### Created by X-TOOL on Tue Oct 25 02:04:27 2005
### 

@<TRIPOS>MOLECULE
1gpn_ligand
   40    43     1     0     0
SMALL
GAST_HUCK


@<TRIPOS>ATOM
      1 H241        2.7351   68.2804   60.0590 H         1 SUB1        0.287
      2 H251       -0.4568   69.1247   62.7175 H         1 SUB1        0.060
      3 H261        0.8785   68.2381   64.5483 H         1 SUB1        0.071
      4 H291        5.1204   68.0521   61.2530 H         1 SUB1        0.068
      5 H292        4.3968   66.4624   60.8335 H         1 SUB1        0.068
      6 H301        6.3903   66.5755   62.6400 H         1 SUB1        0.041
      7 H311        5.4022   64.2859   62.4368 H         1 SUB1        0.025
      8 H321        5.4154   70.5127   65.3357 H         1 SUB1        0.032
      9 H322        5.7130   68.9850   66.2325 H         1 SUB1        0.032
     10 H331        4.8718   69.2235   63.2933 H         1 SUB1        0.026
     11 H332        6.5103   68.8056   63.8994 H         1 SUB1        0.026
     12 H341        5.6201   66.7745   64.9762 H         1 SUB1        0.018
     13 H361        3.7547   67.4331   66.6004 H         1 SUB1        0.194
     14 H362        2.2518   67.8233   66.0541 H         1 SUB1        0.194
     15 H371        2.0451   65.5458   64.4991 H         1 SUB1        0.026
     16 H372        3.2671   65.3732   65.8043 H         1 SUB1        0.026
     17 H391        4.0679   62.5628   63.4371 H         1 SUB1        0.038
     18 H392        2.4012   63.1064   63.8285 H         1 SUB1        0.038
     19 H393        3.6180   62.9264   65.1376 H         1 SUB1        0.038
     20 H401        3.0503   69.9089   65.0422 H         1 SUB1        0.082
     21 H402        3.4898   69.8545   66.7831 H         1 SUB1        0.082
     22 C1          1.0680   68.7710   61.1630 C.2       1 SUB1        0.250
     23 O1          0.4400   69.2080   60.1960 O.2       1 SUB1       -0.373
     24 N1          2.3530   68.2650   60.9830 N.am      1 SUB1       -0.167
     25 C2          0.5440   68.7450   62.5170 C.2       1 SUB1        0.016
     26 C3          1.3020   68.2450   63.5450 C.2       1 SUB1       -0.051
     27 C4          2.6350   67.7280   63.3560 C.2       1 SUB1        0.016
     28 C5          3.1490   67.7340   62.0130 C.2       1 SUB1        0.147
     29 C6          4.5200   67.2110   61.6300 C.3       1 SUB1        0.059
     30 C7          5.3120   66.5280   62.8520 C.3       1 SUB1       -0.016
     31 C8          4.8890   65.0460   63.0240 C.2       1 SUB1       -0.104
     32 C9          5.1250   69.4560   65.4310 C.3       1 SUB1       -0.013
     33 C10         5.4320   68.7380   64.1060 C.3       1 SUB1       -0.054
     34 C11         5.0240   67.2560   64.1870 C.3       1 SUB1       -0.040
     35 C12         3.5160   67.1410   64.5690 C.3       1 SUB1       -0.048
     36 N2          3.2390   67.8790   65.8580 N.4       1 SUB1        0.128
     37 C13         3.1120   65.6420   64.7490 C.3       1 SUB1       -0.039
     38 C14         3.8870   64.6480   63.8920 C.2       1 SUB1       -0.095
     39 C15         3.4650   63.2140   64.0870 C.3       1 SUB1       -0.042
     40 C90         3.6510   69.3860   65.8010 C.3       1 SUB1       -0.042
@<TRIPOS>BOND
     1   24    1 1  
     2   25    2 1  
     3   26    3 1  
     4   29    4 1  
     5   29    5 1  
     6   30    6 1  
     7   31    7 1  
     8   32    8 1  
     9   32    9 1  
    10   33   10 1  
    11   33   11 1  
    12   34   12 1  
    13   36   13 1  
    14   36   14 1  
    15   37   15 1  
    16   37   16 1  
    17   39   17 1  
    18   39   18 1  
    19   39   19 1  
    20   40   20 1  
    21   40   21 1  
    22   25   22 1  
    23   24   22 am 
    24   22   23 2  
    25   28   24 am 
    26   29   28 1  
    27   27   28 2  
    28   35   27 1  
    29   27   26 1  
    30   26   25 2  
    31   35   37 1  
    32   35   36 1  
    33   34   35 1  
    34   33   34 1  
    35   34   30 1  
    36   30   31 1  
    37   30   29 1  
    38   31   38 2  
    39   38   39 1  
    40   37   38 1  
    41   32   33 1  
    42   32   40 1  
    43   40   36 1  
@<TRIPOS>SUBSTRUCTURE
     1 SUB1        1 GROUP

