### 
### Created by X-TOOL on Sun Jun  3 11:24:34 2007
### 

@<TRIPOS>MOLECULE
2fx6_ligand
   17    18     1     0     0
SMALL
GAST_HUCK


@<TRIPOS>ATOM
      1 N1         44.4200   -2.3760   25.6810 N.2       1 SUB1       -0.314
      2 C1         44.1210   -3.6080   25.3470 C.2       1 SUB1        0.211
      3 C2         44.1430   -2.2660   26.9430 C.ar      1 SUB1        0.011
      4 C3         44.2820   -1.1670   27.7600 C.ar      1 SUB1       -0.069
      5 C4         43.9050   -1.3490   29.0980 C.ar      1 SUB1       -0.081
      6 C5         43.4110   -2.5950   29.5450 C.ar      1 SUB1       -0.079
      7 C6         43.2860   -3.7060   28.6680 C.ar      1 SUB1       -0.045
      8 C7         43.6700   -3.4780   27.3690 C.ar      1 SUB1        0.075
      9 N3         43.6570   -4.3030   26.3630 N.pl3     1 SUB1       -0.230
     10 N2         44.3670   -4.0970   24.1710 N.pl3     1 SUB1       -0.289
     11 H          44.6615   -0.2146   27.3898 H         1 SUB1        0.052
     12 H          43.9939   -0.5206   29.8008 H         1 SUB1        0.051
     13 H          43.1184   -2.7068   30.5890 H         1 SUB1        0.051
     14 H          42.9110   -4.6731   29.0031 H         1 SUB1        0.053
     15 H          43.3532   -5.2767   26.3623 H         1 SUB1        0.231
     16 H          44.8115   -3.5163   23.4600 H         1 SUB1        0.186
     17 H          44.1160   -5.0623   23.9573 H         1 SUB1        0.186
@<TRIPOS>BOND
     1    1    2 2  
     2    1    3 1  
     3    2    9 1  
     4    2   10 1  
     5    3    4 ar 
     6    3    8 ar 
     7    4    5 ar 
     8    5    6 ar 
     9    6    7 ar 
    10    7    8 ar 
    11    8    9 1  
    12    4   11 1  
    13    5   12 1  
    14    6   13 1  
    15    7   14 1  
    16    9   15 1  
    17   10   16 1  
    18   10   17 1  
@<TRIPOS>SUBSTRUCTURE
     1 SUB1        1 GROUP

