2fx6_ligand
  -I-interpret- 

 17 18  0  0  0  0  0  0  0  0999 V2000
   44.4200   -2.3760   25.6810 N   0  0  0  0  0
   44.1210   -3.6080   25.3470 C   0  0  0  0  0
   44.1430   -2.2660   26.9430 C   0  0  0  0  0
   44.2820   -1.1670   27.7600 C   0  0  0  0  0
   43.9050   -1.3490   29.0980 C   0  0  0  0  0
   43.4110   -2.5950   29.5450 C   0  0  0  0  0
   43.2860   -3.7060   28.6680 C   0  0  0  0  0
   43.6700   -3.4780   27.3690 C   0  0  0  0  0
   43.6570   -4.3030   26.3630 N   0  0  0  0  0
   44.3670   -4.0970   24.1710 N   0  0  0  0  0
   44.6615   -0.2146   27.3898 H   0  0  0  0  0
   43.9939   -0.5206   29.8008 H   0  0  0  0  0
   43.1184   -2.7068   30.5890 H   0  0  0  0  0
   42.9110   -4.6731   29.0031 H   0  0  0  0  0
   43.3532   -5.2767   26.3623 H   0  0  0  0  0
   44.8115   -3.5163   23.4600 H   0  0  0  0  0
   44.1160   -5.0623   23.9573 H   0  0  0  0  0
  1  2  2  0  0  0
  1  3  1  0  0  0
  2  9  1  0  0  0
  2 10  1  0  0  0
  3  4  4  0  0  0
  3  8  4  0  0  0
  4  5  4  0  0  0
  5  6  4  0  0  0
  6  7  4  0  0  0
  7  8  4  0  0  0
  8  9  1  0  0  0
  4 11  1  0  0  0
  5 12  1  0  0  0
  6 13  1  0  0  0
  7 14  1  0  0  0
  9 15  1  0  0  0
 10 16  1  0  0  0
 10 17  1  0  0  0
M  END
$$$$
