### 
### Created by X-TOOL on Tue Oct 25 01:47:33 2005
### 

@<TRIPOS>MOLECULE
1mmr_ligand
   72    74     1     0     0
SMALL
GAST_HUCK


@<TRIPOS>ATOM
      1 S1         48.5470  -41.6620   50.4750 S.3       1 SUB1        0.277
      2 N5         46.9890  -41.6190   50.1060 N.2       1 SUB1        0.085
      3 N6         48.4480  -42.3000   51.9330 N.2       1 SUB1        0.085
      4 C2         49.3690  -40.1680   50.8410 C.3       1 SUB1        0.125
      5 C3         48.8240  -38.9520   50.0840 C.3       1 SUB1        0.071
      6 C4         49.5880  -38.6050   48.8100 C.2       1 SUB1        0.183
      7 O3         50.8160  -38.6870   48.7630 O.2       1 SUB1       -0.397
      8 N2         48.8960  -38.1550   47.7650 N.am      1 SUB1       -0.264
      9 C5         49.5600  -37.7740   46.5250 C.3       1 SUB1        0.135
     10 C6         49.6590  -36.2600   46.4320 C.2       1 SUB1        0.203
     11 O4         48.6950  -35.5400   46.6970 O.2       1 SUB1       -0.394
     12 N3         50.8270  -35.7590   46.0590 N.am      1 SUB1       -0.285
     13 C7         51.0670  -34.3230   45.8780 C.3       1 SUB1        0.031
     14 C8         52.3220  -34.1660   44.9690 C.3       1 SUB1       -0.033
     15 C9         52.0110  -33.5720   43.5890 C.3       1 SUB1       -0.051
     16 C10        51.5760  -34.6190   42.5870 C.3       1 SUB1       -0.051
     17 C11        50.3440  -34.1920   41.7760 C.3       1 SUB1       -0.027
     18 C12        49.6180  -35.4330   41.2040 C.3       1 SUB1        0.048
     19 N4         49.6220  -36.5760   42.1510 N.pl3     1 SUB1       -0.275
     20 C13        49.0010  -37.7940   51.0950 C.3       1 SUB1       -0.029
     21 C14        48.1640  -36.5100   51.0830 C.3       1 SUB1       -0.044
     22 C15        46.6720  -36.7350   50.7500 C.3       1 SUB1       -0.062
     23 C16        48.2860  -35.9550   52.5160 C.3       1 SUB1       -0.062
     24 C17        48.7740  -38.3430   45.3280 C.3       1 SUB1        0.004
     25 C18        49.3070  -37.8690   44.0140 C.2       1 SUB1       -0.042
     26 C19        48.9740  -36.6760   43.3370 C.2       1 SUB1        0.020
     27 C20        50.2170  -38.5150   43.1610 C.ar      1 SUB1       -0.021
     28 C21        50.3870  -37.6860   42.0150 C.ar      1 SUB1        0.063
     29 C22        50.9060  -39.7270   43.2620 C.ar      1 SUB1       -0.075
     30 C23        51.2480  -38.0770   40.9750 C.ar      1 SUB1       -0.044
     31 C24        51.7560  -40.1120   42.2220 C.ar      1 SUB1       -0.079
     32 C25        51.9280  -39.2970   41.0880 C.ar      1 SUB1       -0.077
     33 C26        49.5390  -42.6890   49.4600 C.3       1 SUB1        0.095
     34 H21        46.4981  -42.4729   49.8917 H         1 SUB1        0.540
     35 H31        49.2859  -42.4684   52.4674 H         1 SUB1        0.540
     36 H41        50.4320  -40.2867   50.5842 H         1 SUB1        0.055
     37 H42        49.2716  -39.9754   51.9196 H         1 SUB1        0.055
     38 H51        47.7637  -39.1067   49.8355 H         1 SUB1        0.055
     39 H81        47.9013  -38.0770   47.8325 H         1 SUB1        0.188
     40 H91        50.5757  -38.1963   46.5174 H         1 SUB1        0.082
     41 H121       51.5834  -36.3915   45.8923 H         1 SUB1        0.185
     42 H131       51.2483  -33.8472   46.8530 H         1 SUB1        0.052
     43 H132       50.1952  -33.8546   45.3978 H         1 SUB1        0.052
     44 H141       52.7743  -35.1585   44.8263 H         1 SUB1        0.029
     45 H142       53.0396  -33.5057   45.4780 H         1 SUB1        0.029
     46 H151       52.9152  -33.0746   43.2081 H         1 SUB1        0.027
     47 H152       51.2040  -32.8325   43.6979 H         1 SUB1        0.027
     48 H161       51.3359  -35.5456   43.1289 H         1 SUB1        0.027
     49 H162       52.4071  -34.8060   41.8911 H         1 SUB1        0.027
     50 H171       50.6630  -33.5443   40.9461 H         1 SUB1        0.029
     51 H172       49.6542  -33.6378   42.4294 H         1 SUB1        0.029
     52 H181       50.1222  -35.7410   40.2761 H         1 SUB1        0.060
     53 H182       48.5754  -35.1615   40.9821 H         1 SUB1        0.060
     54 H201       50.0471  -37.4688   50.9957 H         1 SUB1        0.030
     55 H202       48.8484  -38.2400   52.0889 H         1 SUB1        0.030
     56 H211       48.5853  -35.8007   50.3554 H         1 SUB1        0.030
     57 H221       46.1442  -35.7700   50.7617 H         1 SUB1        0.023
     58 H222       46.2262  -37.4058   51.4992 H         1 SUB1        0.023
     59 H223       46.5835  -37.1893   49.7521 H         1 SUB1        0.023
     60 H231       49.3469  -35.7932   52.7574 H         1 SUB1        0.023
     61 H232       47.8541  -36.6754   53.2263 H         1 SUB1        0.023
     62 H233       47.7442  -35.0003   52.5869 H         1 SUB1        0.023
     63 H241       47.7231  -38.0302   45.4156 H         1 SUB1        0.040
     64 H242       48.8335  -39.4410   45.3571 H         1 SUB1        0.040
     65 H261       48.2816  -35.9280   43.7205 H         1 SUB1        0.080
     66 H291       50.7827  -40.3588   44.1342 H         1 SUB1        0.054
     67 H301       51.3832  -37.4474   40.1030 H         1 SUB1        0.054
     68 H311       52.2908  -41.0524   42.2898 H         1 SUB1        0.051
     69 H321       52.5932  -39.6161   40.2938 H         1 SUB1        0.053
     70 H331       48.9990  -43.6227   49.2442 H         1 SUB1        0.049
     71 H332       50.4793  -42.9214   49.9813 H         1 SUB1        0.049
     72 H333       49.7615  -42.1678   48.5172 H         1 SUB1        0.049
@<TRIPOS>BOND
     1    1   33 1  
     2    1    4 1  
     3    1    3 1  
     4    1    2 1  
     5    4    5 1  
     6    5   20 1  
     7    5    6 1  
     8    6    8 am 
     9    6    7 2  
    10    8    9 1  
    11    9   24 1  
    12    9   10 1  
    13   10   12 am 
    14   10   11 2  
    15   12   13 1  
    16   13   14 1  
    17   14   15 1  
    18   15   16 1  
    19   16   17 1  
    20   17   18 1  
    21   18   19 1  
    22   19   28 1  
    23   19   26 1  
    24   26   25 2  
    25   25   27 1  
    26   25   24 1  
    27   27   29 ar 
    28   27   28 ar 
    29   28   30 ar 
    30   30   32 ar 
    31   32   31 ar 
    32   31   29 ar 
    33   20   21 1  
    34   21   23 1  
    35   21   22 1  
    36    2   34 1  
    37    3   35 1  
    38    4   36 1  
    39    4   37 1  
    40    5   38 1  
    41    8   39 1  
    42    9   40 1  
    43   12   41 1  
    44   13   42 1  
    45   13   43 1  
    46   14   44 1  
    47   14   45 1  
    48   15   46 1  
    49   15   47 1  
    50   16   48 1  
    51   16   49 1  
    52   17   50 1  
    53   17   51 1  
    54   18   52 1  
    55   18   53 1  
    56   20   54 1  
    57   20   55 1  
    58   21   56 1  
    59   22   57 1  
    60   22   58 1  
    61   22   59 1  
    62   23   60 1  
    63   23   61 1  
    64   23   62 1  
    65   24   63 1  
    66   24   64 1  
    67   26   65 1  
    68   29   66 1  
    69   30   67 1  
    70   31   68 1  
    71   32   69 1  
    72   33   70 1  
    73   33   71 1  
    74   33   72 1  
@<TRIPOS>SUBSTRUCTURE
     1 SUB1        1 GROUP

