### 
### Created by X-TOOL on Mon Oct 24 22:39:06 2005
### 

@<TRIPOS>MOLECULE
6rnt_ligand
   35    37     1     0     0
SMALL
GAST_HUCK


@<TRIPOS>ATOM
      1 H171       24.9628   13.0377   -1.2501 H         1 SUB1        0.209
      2 H181       24.8028   14.0159   -3.3763 H         1 SUB1        0.058
      3 H182       24.1560   15.4755   -2.5530 H         1 SUB1        0.058
      4 H191       22.4794   13.8013   -3.5573 H         1 SUB1        0.065
      5 H211       22.3194   15.4732   -1.1416 H         1 SUB1        0.065
      6 H221       20.1020   15.5011   -1.8139 H         1 SUB1        0.210
      7 H231       22.1754   13.4510    0.1977 H         1 SUB1        0.073
      8 H251       20.7620   12.0301   -2.1094 H         1 SUB1        0.100
      9 H271       23.1825   11.3849    0.9447 H         1 SUB1        0.131
     10 H311       21.3253    5.5601    0.6611 H         1 SUB1        0.182
     11 H312       22.2262    6.8118    1.5579 H         1 SUB1        0.182
     12 H331       19.5527    7.7335   -2.9654 H         1 SUB1        0.108
     13 PA         19.6670   13.8280    1.3770 P.3       1 SUB1        0.206
     14 O1A        20.8080   14.4870    1.9610 O.co2     1 SUB1       -0.535
     15 O2A        19.7300   12.3840    1.8180 O.co2     1 SUB1       -0.535
     16 O3A        18.3820   14.4730    1.2140 O.co2     1 SUB1       -0.535
     17 O5'        24.9010   13.9850   -1.2850 O.3       1 SUB1       -0.392
     18 C5'        24.2320   14.3790   -2.5090 C.3       1 SUB1        0.073
     19 C4'        22.8470   13.7720   -2.5210 C.3       1 SUB1        0.114
     20 O4'        22.8640   12.3600   -2.0880 O.3       1 SUB1       -0.336
     21 C3'        21.8520   14.6060   -1.6310 C.3       1 SUB1        0.119
     22 O3'        20.6810   15.0010   -2.3770 O.3       1 SUB1       -0.386
     23 C2'        21.4830   13.4520   -0.6570 C.3       1 SUB1        0.160
     24 O2'        20.1630   13.6280   -0.1880 O.3       1 SUB1       -0.311
     25 C1'        21.6040   12.1450   -1.4110 C.3       1 SUB1        0.206
     26 N9         21.7510   10.9030   -0.6290 N.pl3     1 SUB1       -0.190
     27 C8         22.5990   10.6230    0.4300 C.2       1 SUB1        0.110
     28 N7         22.6320    9.3420    0.7560 N.2       1 SUB1       -0.301
     29 C5         21.7210    8.7570   -0.1050 C.2       1 SUB1        0.105
     30 C6         21.3360    7.3840   -0.1210 C.2       1 SUB1        0.125
     31 N6         21.6480    6.5340    0.7520 N.pl3     1 SUB1       -0.313
     32 N1         20.5410    7.0930   -1.2200 N.2       1 SUB1       -0.274
     33 C2         20.1580    8.0700   -2.1250 C.2       1 SUB1        0.053
     34 N3         20.4480    9.4030   -2.0900 N.2       1 SUB1       -0.266
     35 C4         21.3800    9.6440   -1.1130 C.2       1 SUB1        0.163
@<TRIPOS>BOND
     1   17    1 1  
     2   18    2 1  
     3   18    3 1  
     4   19    4 1  
     5   21    5 1  
     6   22    6 1  
     7   23    7 1  
     8   25    8 1  
     9   27    9 1  
    10   31   10 1  
    11   31   11 1  
    12   33   12 1  
    13   13   14 2  
    14   13   15 2  
    15   13   16 2  
    16   24   13 1  
    17   18   17 1  
    18   19   18 1  
    19   20   19 1  
    20   19   21 1  
    21   21   22 1  
    22   23   21 1  
    23   23   24 1  
    24   25   23 1  
    25   25   20 1  
    26   26   25 1  
    27   26   27 1  
    28   35   26 1  
    29   28   27 2  
    30   29   28 1  
    31   30   29 1  
    32   29   35 2  
    33   30   31 1  
    34   32   30 2  
    35   32   33 1  
    36   33   34 2  
    37   34   35 1  
@<TRIPOS>SUBSTRUCTURE
     1 SUB1        1 GROUP

