6rnt_ligand
  -I-interpret- 

 35 37  0  0  0  0  0  0  0  0999 V2000
   24.9628   13.0377   -1.2501 H   0  0  0  0  0
   24.8028   14.0159   -3.3763 H   0  0  0  0  0
   24.1560   15.4755   -2.5530 H   0  0  0  0  0
   22.4794   13.8013   -3.5573 H   0  0  0  0  0
   22.3194   15.4732   -1.1416 H   0  0  0  0  0
   20.1020   15.5011   -1.8139 H   0  0  0  0  0
   22.1754   13.4510    0.1977 H   0  0  0  0  0
   20.7620   12.0301   -2.1094 H   0  0  0  0  0
   23.1825   11.3849    0.9447 H   0  0  0  0  0
   21.3253    5.5601    0.6611 H   0  0  0  0  0
   22.2262    6.8118    1.5579 H   0  0  0  0  0
   19.5527    7.7335   -2.9654 H   0  0  0  0  0
   19.6670   13.8280    1.3770 P   0  0  0  0  0
   20.8080   14.4870    1.9610 O   0  0  0  0  0
   19.7300   12.3840    1.8180 O   0  5  0  0  0
   18.3820   14.4730    1.2140 O   0  5  0  0  0
   24.9010   13.9850   -1.2850 O   0  0  0  0  0
   24.2320   14.3790   -2.5090 C   0  0  0  0  0
   22.8470   13.7720   -2.5210 C   0  0  0  0  0
   22.8640   12.3600   -2.0880 O   0  0  0  0  0
   21.8520   14.6060   -1.6310 C   0  0  0  0  0
   20.6810   15.0010   -2.3770 O   0  0  0  0  0
   21.4830   13.4520   -0.6570 C   0  0  0  0  0
   20.1630   13.6280   -0.1880 O   0  0  0  0  0
   21.6040   12.1450   -1.4110 C   0  0  0  0  0
   21.7510   10.9030   -0.6290 N   0  0  0  0  0
   22.5990   10.6230    0.4300 C   0  0  0  0  0
   22.6320    9.3420    0.7560 N   0  0  0  0  0
   21.7210    8.7570   -0.1050 C   0  0  0  0  0
   21.3360    7.3840   -0.1210 C   0  0  0  0  0
   21.6480    6.5340    0.7520 N   0  0  0  0  0
   20.5410    7.0930   -1.2200 N   0  0  0  0  0
   20.1580    8.0700   -2.1250 C   0  0  0  0  0
   20.4480    9.4030   -2.0900 N   0  0  0  0  0
   21.3800    9.6440   -1.1130 C   0  0  0  0  0
 17  1  1  0  0  0
 18  2  1  0  0  0
 18  3  1  0  0  0
 19  4  1  0  0  0
 21  5  1  0  0  0
 22  6  1  0  0  0
 23  7  1  0  0  0
 25  8  1  0  0  0
 27  9  1  0  0  0
 31 10  1  0  0  0
 31 11  1  0  0  0
 33 12  1  0  0  0
 13 14  2  0  0  0
 13 15  1  0  0  0
 13 16  1  0  0  0
 24 13  1  0  0  0
 18 17  1  0  0  0
 19 18  1  0  0  0
 20 19  1  0  0  0
 19 21  1  0  0  0
 21 22  1  0  0  0
 23 21  1  0  0  0
 23 24  1  0  0  0
 25 23  1  0  0  0
 25 20  1  0  0  0
 26 25  1  0  0  0
 26 27  1  0  0  0
 35 26  1  0  0  0
 28 27  2  0  0  0
 29 28  1  0  0  0
 30 29  1  0  0  0
 29 35  2  0  0  0
 30 31  1  0  0  0
 32 30  2  0  0  0
 32 33  1  0  0  0
 33 34  2  0  0  0
 34 35  1  0  0  0
M  END
$$$$
