1lag_ligand
  -I-interpret- 

 20 20  0  0  0  0  0  0  0  0999 V2000
   31.5380   30.2340   68.1190 N   0  3  0  0  0
   31.5780   28.9070   67.6330 C   0  0  0  0  0
   31.2400   28.0640   68.8700 C   0  0  0  0  0
   31.0770   28.5930   69.9840 O   0  5  0  0  0
   32.9630   28.5560   67.0580 C   0  0  0  0  0
   34.2460   28.4870   67.8950 C   0  0  0  0  0
   35.3590   27.8660   67.5430 N   0  0  0  0  0
   34.5110   29.0340   69.1130 C   0  0  0  0  0
   36.2640   28.0220   68.4640 C   0  0  0  0  0
   35.7400   28.7090   69.4140 N   0  0  0  0  0
   31.1330   26.8670   68.6900 O   0  0  0  0  0
   31.2348   30.2307   69.0803 H   0  0  0  0  0
   30.8202   28.7603   66.8492 H   0  0  0  0  0
   33.1583   29.3023   66.2738 H   0  0  0  0  0
   32.8524   27.5624   66.5992 H   0  0  0  0  0
   33.8295   29.6283   69.7199 H   0  0  0  0  0
   37.2830   27.6389   68.4348 H   0  0  0  0  0
   30.8929   30.7754   67.5651 H   0  0  0  0  0
   32.4577   30.6420   68.0582 H   0  0  0  0  0
   36.2199   28.9669   70.2881 H   0  0  0  0  0
  2  3  1  0  0  0
  2  5  1  0  0  0
  2  1  1  0  0  0
  5  6  1  0  0  0
  6  8  2  0  0  0
  6  7  1  0  0  0
  7  9  2  0  0  0
  9 10  1  0  0  0
 10  8  1  0  0  0
  3 11  2  0  0  0
  3  4  1  0  0  0
  1 12  1  0  0  0
  2 13  1  0  0  0
  5 14  1  0  0  0
  5 15  1  0  0  0
  8 16  1  0  0  0
  9 17  1  0  0  0
  1 18  1  0  0  0
  1 19  1  0  0  0
 10 20  1  0  0  0
M  END
$$$$
