### 
### Created by X-TOOL on Tue Oct 25 00:19:42 2005
### 

@<TRIPOS>MOLECULE
1lag_ligand
   20    20     1     0     0
SMALL
GAST_HUCK


@<TRIPOS>ATOM
      1 N          31.5380   30.2340   68.1190 N.4       1 SUB1        0.239
      2 CA         31.5780   28.9070   67.6330 C.3       1 SUB1        0.021
      3 C          31.2400   28.0640   68.8700 C.2       1 SUB1        0.078
      4 O          31.0770   28.5930   69.9840 O.co2     1 SUB1       -0.561
      5 CB         32.9630   28.5560   67.0580 C.3       1 SUB1        0.028
      6 CG         34.2460   28.4870   67.8950 C.2       1 SUB1        0.001
      7 ND1        35.3590   27.8660   67.5430 N.2       1 SUB1       -0.325
      8 CD2        34.5110   29.0340   69.1130 C.2       1 SUB1        0.029
      9 CE1        36.2640   28.0220   68.4640 C.2       1 SUB1        0.091
     10 NE2        35.7400   28.7090   69.4140 N.pl3     1 SUB1       -0.275
     11 OXT        31.1330   26.8670   68.6900 O.co2     1 SUB1       -0.561
     12 H11        31.2348   30.2307   69.0803 H         1 SUB1        0.202
     13 H21        30.8202   28.7603   66.8492 H         1 SUB1        0.108
     14 H51        33.1583   29.3023   66.2738 H         1 SUB1        0.046
     15 H52        32.8524   27.5624   66.5992 H         1 SUB1        0.046
     16 H81        33.8295   29.6283   69.7199 H         1 SUB1        0.073
     17 H91        37.2830   27.6389   68.4348 H         1 SUB1        0.120
     18 H12        30.8929   30.7754   67.5651 H         1 SUB1        0.202
     19 H13        32.4577   30.6420   68.0582 H         1 SUB1        0.202
     20 H101       36.2199   28.9669   70.2881 H         1 SUB1        0.236
@<TRIPOS>BOND
     1    2    3 1  
     2    2    5 1  
     3    2    1 1  
     4    5    6 1  
     5    6    8 2  
     6    6    7 1  
     7    7    9 2  
     8    9   10 1  
     9   10    8 1  
    10    3   11 2  
    11    3    4 2  
    12    1   12 1  
    13    2   13 1  
    14    5   14 1  
    15    5   15 1  
    16    8   16 1  
    17    9   17 1  
    18    1   18 1  
    19    1   19 1  
    20   10   20 1  
@<TRIPOS>SUBSTRUCTURE
     1 SUB1        1 GROUP

