1hvs_ligand
  -I-interpret- 

116119  0  0  0  0  0  0  0  0999 V2000
    3.5100    3.4800   10.9120 C   0  0  0  0  0
    3.4010    4.2200   11.8740 O   0  0  0  0  0
    3.9770    3.9480    9.7340 N   0  0  0  0  0
    4.2570    3.0870    8.5790 C   0  0  0  0  0
    4.2450    5.3400    9.5550 C   0  0  0  0  0
    5.7260    5.5540    9.5920 C   0  0  0  0  0
    6.4710    5.6040    8.4260 C   0  0  0  0  0
    6.2330    5.7210   10.7900 N   0  0  0  0  0
    7.8180    5.8620    8.5190 C   0  0  0  0  0
    7.5300    5.9550   10.8530 C   0  0  0  0  0
    8.3670    6.0450    9.7650 C   0  0  0  0  0
    3.1750    2.1870   10.9770 N   0  0  0  0  0
    2.7630    1.4930   12.1580 C   0  0  0  0  0
    3.9020    0.5570   12.5420 C   0  0  0  0  0
    3.9500   -0.6130   12.1900 O   0  0  0  0  0
    1.4450    0.7500   11.9050 C   0  0  0  0  0
    0.9350   -0.0520   13.1280 C   0  0  0  0  0
    0.3580    1.6990   11.3980 C   0  0  0  0  0
    4.8410    1.1180   13.2860 N   0  0  0  0  0
    6.0420    0.4140   13.6900 C   0  0  0  0  0
    7.2750    1.2580   13.3490 C   0  0  0  0  0
    7.6120    1.2130   11.8990 C   0  0  0  0  0
    7.2320    2.2390   11.0570 C   0  0  0  0  0
    7.5100    2.1640    9.7190 C   0  0  0  0  0
    8.1600    1.0600    9.2310 C   0  0  0  0  0
    8.5580    0.0400   10.0740 C   0  0  0  0  0
    8.2890    0.1150   11.4130 C   0  0  0  0  0
    6.0140    0.2880   15.1650 C   0  0  0  0  0
    7.2100   -0.3640   15.5460 O   0  0  0  0  0
    5.1780   -0.2200   17.1760 O   0  0  0  0  0
    4.8230   -0.3660   15.8340 C   0  0  0  0  0
    5.7220   -2.6330   16.3070 N   0  0  0  0  0
    4.6460   -1.8620   15.6430 C   0  0  0  0  0
    3.2800   -2.2330   16.2470 C   0  0  0  0  0
    2.9310   -3.7210   16.1860 C   0  0  0  0  0
    2.9960   -4.5160   17.3310 C   0  0  0  0  0
    2.6860   -5.8610   17.2760 C   0  0  0  0  0
    2.3100   -6.4490   16.0970 C   0  0  0  0  0
    2.2310   -5.6780   14.9520 C   0  0  0  0  0
    2.5380   -4.3230   14.9950 C   0  0  0  0  0
    6.8350   -5.7600   16.7550 N   0  0  0  0  0
    7.3860   -4.4340   16.5220 C   0  0  0  0  0
    6.3750   -3.6460   15.7030 C   0  0  0  0  0
    6.1900   -3.9220   14.5280 O   0  0  0  0  0
    8.7230   -4.6000   15.8120 C   0  0  0  0  0
    9.3520   -3.2450   15.4470 C   0  0  0  0  0
    9.6830   -5.4520   16.6680 C   0  0  0  0  0
    6.6040   -6.2540   17.9820 C   0  0  0  0  0
    7.0510   -5.7360   18.9890 O   0  0  0  0  0
    5.8920   -7.3630   18.0710 N   0  0  0  0  0
    5.3520   -7.9890   16.8560 C   0  0  0  0  0
    5.6690   -7.9730   19.3750 C   0  0  0  0  0
    4.2440   -7.8210   19.8470 C   0  0  0  0  0
    3.3400   -8.8480   19.5810 C   0  0  0  0  0
    3.9180   -6.6890   20.4580 N   0  0  0  0  0
    2.0170   -8.7120   19.9230 C   0  0  0  0  0
    2.6310   -6.5680   20.7440 C   0  0  0  0  0
    1.6530   -7.5280   20.5140 C   0  0  0  0  0
    6.1440   -8.4980   16.3050 H   0  0  0  0  0
    6.2960   -7.5380   20.1490 H   0  0  0  0  0
    5.9300   -9.0280   19.3130 H   0  0  0  0  0
    3.6510   -9.7310   19.0500 H   0  0  0  0  0
    1.2980   -9.4760   19.6910 H   0  0  0  0  0
    2.2920   -5.6210   21.1370 H   0  0  0  0  0
    0.6110   -7.3380   20.7400 H   0  0  0  0  0
    4.8990   -7.2510   16.1940 H   0  0  0  0  0
    4.5900   -8.7270   17.0920 H   0  0  0  0  0
    4.7330    3.6050    7.7540 H   0  0  0  0  0
    4.8940    2.2450    8.8530 H   0  0  0  0  0
    3.3230    2.6860    8.1930 H   0  0  0  0  0
    3.7690    5.9350   10.3270 H   0  0  0  0  0
    3.8220    5.6670    8.6050 H   0  0  0  0  0
    6.0000    5.4180    7.4700 H   0  0  0  0  0
    8.4190    5.9070    7.6270 H   0  0  0  0  0
    7.9520    6.0700   11.8450 H   0  0  0  0  0
    9.4170    6.2480    9.8960 H   0  0  0  0  0
    3.2830    1.6160   10.1620 H   0  0  0  0  0
    2.6090    2.2010   12.9560 H   0  0  0  0  0
    1.6190    0.0270   11.1020 H   0  0  0  0  0
   -0.0730   -0.4200   12.9780 H   0  0  0  0  0
    1.5770   -0.9090   13.3330 H   0  0  0  0  0
    0.9140    0.5570   14.0260 H   0  0  0  0  0
    0.1070    2.4500   12.1480 H   0  0  0  0  0
    0.6440    2.2100   10.4790 H   0  0  0  0  0
   -0.5550    1.1460   11.1740 H   0  0  0  0  0
    4.7350    2.0870   13.5040 H   0  0  0  0  0
    6.0810   -0.5760   13.2270 H   0  0  0  0  0
    8.1650    0.9360   13.8860 H   0  0  0  0  0
    7.1260    2.2910   13.6580 H   0  0  0  0  0
    6.7000    3.0930   11.4420 H   0  0  0  0  0
    7.2060    2.9370    9.0320 H   0  0  0  0  0
    8.3200    0.9800    8.1640 H   0  0  0  0  0
    9.0650   -0.8280    9.6780 H   0  0  0  0  0
    8.6000   -0.6860   12.0650 H   0  0  0  0  0
    6.1160    1.2950   15.5790 H   0  0  0  0  0
    7.2284   -0.4647   16.5038 H   0  0  0  0  0
    5.9979   -0.7038   17.3458 H   0  0  0  0  0
    3.9080    0.1820   15.6350 H   0  0  0  0  0
    5.8590   -2.4750   17.2850 H   0  0  0  0  0
    4.6290   -2.0850   14.5810 H   0  0  0  0  0
    2.4920   -1.6760   15.7420 H   0  0  0  0  0
    3.2350   -1.9050   17.2930 H   0  0  0  0  0
    3.3040   -4.0750   18.2750 H   0  0  0  0  0
    2.7400   -6.4640   18.1520 H   0  0  0  0  0
    2.0840   -7.5050   16.0970 H   0  0  0  0  0
    1.9060   -6.1340   14.0260 H   0  0  0  0  0
    2.4580   -3.7290   14.1020 H   0  0  0  0  0
    6.5080   -6.2250   15.9270 H   0  0  0  0  0
    7.5560   -3.9180   17.4680 H   0  0  0  0  0
    8.5630   -5.1320   14.8660 H   0  0  0  0  0
   10.3500   -3.3750   15.0250 H   0  0  0  0  0
    8.7710   -2.6880   14.7160 H   0  0  0  0  0
    9.4600   -2.6240   16.3370 H   0  0  0  0  0
    9.7950   -5.0420   17.6630 H   0  0  0  0  0
    9.3630   -6.4890   16.7310 H   0  0  0  0  0
   10.6730   -5.4620   16.2120 H   0  0  0  0  0
  1  2  2  0  0  0
  1  3  1  0  0  0
 12  1  1  0  0  0
  3  4  1  0  0  0
  3  5  1  0  0  0
  4 68  1  0  0  0
  4 69  1  0  0  0
  4 70  1  0  0  0
  5  6  1  0  0  0
  5 71  1  0  0  0
  5 72  1  0  0  0
  6  7  4  0  0  0
  6  8  4  0  0  0
  7  9  4  0  0  0
  7 73  1  0  0  0
  8 10  4  0  0  0
  9 11  4  0  0  0
  9 74  1  0  0  0
 10 11  4  0  0  0
 10 75  1  0  0  0
 11 76  1  0  0  0
 13 12  1  0  0  0
 12 77  1  0  0  0
 14 13  1  0  0  0
 13 16  1  0  0  0
 13 78  1  0  0  0
 14 15  2  0  0  0
 19 14  1  0  0  0
 16 17  1  0  0  0
 16 18  1  0  0  0
 16 79  1  0  0  0
 17 80  1  0  0  0
 17 81  1  0  0  0
 17 82  1  0  0  0
 18 83  1  0  0  0
 18 84  1  0  0  0
 18 85  1  0  0  0
 20 19  1  0  0  0
 19 86  1  0  0  0
 20 21  1  0  0  0
 28 20  1  0  0  0
 20 87  1  0  0  0
 21 22  1  0  0  0
 21 88  1  0  0  0
 21 89  1  0  0  0
 22 23  4  0  0  0
 22 27  4  0  0  0
 23 24  4  0  0  0
 23 90  1  0  0  0
 24 25  4  0  0  0
 24 91  1  0  0  0
 26 25  4  0  0  0
 25 92  1  0  0  0
 27 26  4  0  0  0
 26 93  1  0  0  0
 27 94  1  0  0  0
 28 29  1  0  0  0
 31 28  1  0  0  0
 28 95  1  0  0  0
 29 96  1  0  0  0
 31 33  1  0  0  0
 31 98  1  0  0  0
 33 34  1  0  0  0
 33100  1  0  0  0
 34 35  1  0  0  0
 34101  1  0  0  0
 34102  1  0  0  0
 35 36  4  0  0  0
 35 40  4  0  0  0
 36 37  4  0  0  0
 36103  1  0  0  0
 37 38  4  0  0  0
 37104  1  0  0  0
 39 38  4  0  0  0
 38105  1  0  0  0
 40 39  4  0  0  0
 39106  1  0  0  0
 40107  1  0  0  0
 42 41  1  0  0  0
 41 48  1  0  0  0
 43 42  1  0  0  0
 42 45  1  0  0  0
 43 44  2  0  0  0
 45 46  1  0  0  0
 45 47  1  0  0  0
 48 49  2  0  0  0
 48 50  1  0  0  0
 50 51  1  0  0  0
 51 59  1  0  0  0
 51 66  1  0  0  0
 51 67  1  0  0  0
 50 52  1  0  0  0
 52 53  1  0  0  0
 52 60  1  0  0  0
 52 61  1  0  0  0
 53 54  4  0  0  0
 53 55  4  0  0  0
 54 56  4  0  0  0
 54 62  1  0  0  0
 55 57  4  0  0  0
 56 58  4  0  0  0
 56 63  1  0  0  0
 57 58  4  0  0  0
 57 64  1  0  0  0
 58 65  1  0  0  0
 47116  1  0  0  0
 47115  1  0  0  0
 47114  1  0  0  0
 46113  1  0  0  0
 46112  1  0  0  0
 46111  1  0  0  0
 45110  1  0  0  0
 42109  1  0  0  0
 41108  1  0  0  0
 32 99  1  0  0  0
 30 97  1  0  0  0
 32 43  1  0  0  0
 33 32  1  0  0  0
 31 30  1  0  0  0
M  END
$$$$
