### 
### Created by X-TOOL on Tue Oct 25 01:42:09 2005
### 

@<TRIPOS>MOLECULE
1hvs_ligand
  116   119     1     0     0
SMALL
GAST_HUCK


@<TRIPOS>ATOM
      1 C1          3.5100    3.4800   10.9120 C.2       1 SUB1        0.264
      2 O2          3.4010    4.2200   11.8740 O.2       1 SUB1       -0.400
      3 N3          3.9770    3.9480    9.7340 N.am      1 SUB1       -0.249
      4 C4          4.2570    3.0870    8.5790 C.3       1 SUB1        0.025
      5 C5          4.2450    5.3400    9.5550 C.3       1 SUB1        0.083
      6 C6          5.7260    5.5540    9.5920 C.ar      1 SUB1        0.050
      7 C7          6.4710    5.6040    8.4260 C.ar      1 SUB1       -0.030
      8 N8          6.2330    5.7210   10.7900 N.ar      1 SUB1       -0.296
      9 C9          7.8180    5.8620    8.5190 C.ar      1 SUB1       -0.049
     10 C10         7.5300    5.9550   10.8530 C.ar      1 SUB1        0.003
     11 C11         8.3670    6.0450    9.7650 C.ar      1 SUB1       -0.041
     12 N21         3.1750    2.1870   10.9770 N.am      1 SUB1       -0.251
     13 C22         2.7630    1.4930   12.1580 C.3       1 SUB1        0.133
     14 C23         3.9020    0.5570   12.5420 C.2       1 SUB1        0.202
     15 O24         3.9500   -0.6130   12.1900 O.2       1 SUB1       -0.394
     16 C25         1.4450    0.7500   11.9050 C.3       1 SUB1       -0.007
     17 C26         0.9350   -0.0520   13.1280 C.3       1 SUB1       -0.058
     18 C27         0.3580    1.6990   11.3980 C.3       1 SUB1       -0.058
     19 N37         4.8410    1.1180   13.2860 N.am      1 SUB1       -0.278
     20 C38         6.0420    0.4140   13.6900 C.3       1 SUB1        0.080
     21 C39         7.2750    1.2580   13.3490 C.3       1 SUB1        0.007
     22 C40         7.6120    1.2130   11.8990 C.ar      1 SUB1       -0.041
     23 C41         7.2320    2.2390   11.0570 C.ar      1 SUB1       -0.060
     24 C42         7.5100    2.1640    9.7190 C.ar      1 SUB1       -0.069
     25 C43         8.1600    1.0600    9.2310 C.ar      1 SUB1       -0.069
     26 C44         8.5580    0.0400   10.0740 C.ar      1 SUB1       -0.069
     27 C45         8.2890    0.1150   11.4130 C.ar      1 SUB1       -0.060
     28 C46         6.0140    0.2880   15.1650 C.3       1 SUB1        0.108
     29 O47         7.2100   -0.3640   15.5460 O.3       1 SUB1       -0.387
     30 O48         5.1780   -0.2200   17.1760 O.3       1 SUB1       -0.387
     31 C49         4.8230   -0.3660   15.8340 C.3       1 SUB1        0.108
     32 N50         5.7220   -2.6330   16.3070 N.am      1 SUB1       -0.278
     33 C51         4.6460   -1.8620   15.6430 C.3       1 SUB1        0.080
     34 C52         3.2800   -2.2330   16.2470 C.3       1 SUB1        0.007
     35 C53         2.9310   -3.7210   16.1860 C.ar      1 SUB1       -0.041
     36 C54         2.9960   -4.5160   17.3310 C.ar      1 SUB1       -0.060
     37 C55         2.6860   -5.8610   17.2760 C.ar      1 SUB1       -0.069
     38 C56         2.3100   -6.4490   16.0970 C.ar      1 SUB1       -0.069
     39 C57         2.2310   -5.6780   14.9520 C.ar      1 SUB1       -0.069
     40 C58         2.5380   -4.3230   14.9950 C.ar      1 SUB1       -0.060
     41 N81         6.8350   -5.7600   16.7550 N.am      1 SUB1       -0.251
     42 C82         7.3860   -4.4340   16.5220 C.3       1 SUB1        0.133
     43 C83         6.3750   -3.6460   15.7030 C.2       1 SUB1        0.202
     44 O84         6.1900   -3.9220   14.5280 O.2       1 SUB1       -0.394
     45 C85         8.7230   -4.6000   15.8120 C.3       1 SUB1       -0.007
     46 C86         9.3520   -3.2450   15.4470 C.3       1 SUB1       -0.058
     47 C87         9.6830   -5.4520   16.6680 C.3       1 SUB1       -0.058
     48 C97         6.6040   -6.2540   17.9820 C.2       1 SUB1        0.264
     49 O98         7.0510   -5.7360   18.9890 O.2       1 SUB1       -0.400
     50 N99         5.8920   -7.3630   18.0710 N.am      1 SUB1       -0.249
     51 C2          5.3520   -7.9890   16.8560 C.3       1 SUB1        0.025
     52 C3          5.6690   -7.9730   19.3750 C.3       1 SUB1        0.083
     53 C8          4.2440   -7.8210   19.8470 C.ar      1 SUB1        0.050
     54 C12         3.3400   -8.8480   19.5810 C.ar      1 SUB1       -0.030
     55 N10         3.9180   -6.6890   20.4580 N.ar      1 SUB1       -0.296
     56 C13         2.0170   -8.7120   19.9230 C.ar      1 SUB1       -0.049
     57 C14         2.6310   -6.5680   20.7440 C.ar      1 SUB1        0.003
     58 C15         1.6530   -7.5280   20.5140 C.ar      1 SUB1       -0.041
     59 H511        6.1440   -8.4980   16.3050 H         1 SUB1        0.049
     60 H521        6.2960   -7.5380   20.1490 H         1 SUB1        0.071
     61 H522        5.9300   -9.0280   19.3130 H         1 SUB1        0.071
     62 H541        3.6510   -9.7310   19.0500 H         1 SUB1        0.065
     63 H561        1.2980   -9.4760   19.6910 H         1 SUB1        0.072
     64 H571        2.2920   -5.6210   21.1370 H         1 SUB1        0.080
     65 H581        0.6110   -7.3380   20.7400 H         1 SUB1        0.065
     66 H512        4.8990   -7.2510   16.1940 H         1 SUB1        0.049
     67 H513        4.5900   -8.7270   17.0920 H         1 SUB1        0.049
     68 H41         4.7330    3.6050    7.7540 H         1 SUB1        0.049
     69 H42         4.8940    2.2450    8.8530 H         1 SUB1        0.049
     70 H43         3.3230    2.6860    8.1930 H         1 SUB1        0.049
     71 H51         3.7690    5.9350   10.3270 H         1 SUB1        0.071
     72 H52         3.8220    5.6670    8.6050 H         1 SUB1        0.071
     73 H71         6.0000    5.4180    7.4700 H         1 SUB1        0.065
     74 H91         8.4190    5.9070    7.6270 H         1 SUB1        0.072
     75 H101        7.9520    6.0700   11.8450 H         1 SUB1        0.080
     76 H111        9.4170    6.2480    9.8960 H         1 SUB1        0.065
     77 H121        3.2830    1.6160   10.1620 H         1 SUB1        0.188
     78 H131        2.6090    2.2010   12.9560 H         1 SUB1        0.080
     79 H161        1.6190    0.0270   11.1020 H         1 SUB1        0.034
     80 H171       -0.0730   -0.4200   12.9780 H         1 SUB1        0.023
     81 H172        1.5770   -0.9090   13.3330 H         1 SUB1        0.023
     82 H173        0.9140    0.5570   14.0260 H         1 SUB1        0.023
     83 H181        0.1070    2.4500   12.1480 H         1 SUB1        0.023
     84 H182        0.6440    2.2100   10.4790 H         1 SUB1        0.023
     85 H183       -0.5550    1.1460   11.1740 H         1 SUB1        0.023
     86 H191        4.7350    2.0870   13.5040 H         1 SUB1        0.186
     87 H201        6.0810   -0.5760   13.2270 H         1 SUB1        0.060
     88 H211        8.1650    0.9360   13.8860 H         1 SUB1        0.045
     89 H212        7.1260    2.2910   13.6580 H         1 SUB1        0.045
     90 H231        6.7000    3.0930   11.4420 H         1 SUB1        0.056
     91 H241        7.2060    2.9370    9.0320 H         1 SUB1        0.060
     92 H251        8.3200    0.9800    8.1640 H         1 SUB1        0.056
     93 H261        9.0650   -0.8280    9.6780 H         1 SUB1        0.060
     94 H271        8.6000   -0.6860   12.0650 H         1 SUB1        0.056
     95 H281        6.1160    1.2950   15.5790 H         1 SUB1        0.064
     96 H291        7.2284   -0.4647   16.5038 H         1 SUB1        0.210
     97 H301        5.9979   -0.7038   17.3458 H         1 SUB1        0.210
     98 H311        3.9080    0.1820   15.6350 H         1 SUB1        0.064
     99 H321        5.8590   -2.4750   17.2850 H         1 SUB1        0.186
    100 H331        4.6290   -2.0850   14.5810 H         1 SUB1        0.060
    101 H341        2.4920   -1.6760   15.7420 H         1 SUB1        0.045
    102 H342        3.2350   -1.9050   17.2930 H         1 SUB1        0.045
    103 H361        3.3040   -4.0750   18.2750 H         1 SUB1        0.056
    104 H371        2.7400   -6.4640   18.1520 H         1 SUB1        0.060
    105 H381        2.0840   -7.5050   16.0970 H         1 SUB1        0.056
    106 H391        1.9060   -6.1340   14.0260 H         1 SUB1        0.060
    107 H401        2.4580   -3.7290   14.1020 H         1 SUB1        0.056
    108 H411        6.5080   -6.2250   15.9270 H         1 SUB1        0.188
    109 H421        7.5560   -3.9180   17.4680 H         1 SUB1        0.080
    110 H451        8.5630   -5.1320   14.8660 H         1 SUB1        0.034
    111 H461       10.3500   -3.3750   15.0250 H         1 SUB1        0.023
    112 H462        8.7710   -2.6880   14.7160 H         1 SUB1        0.023
    113 H463        9.4600   -2.6240   16.3370 H         1 SUB1        0.023
    114 H471        9.7950   -5.0420   17.6630 H         1 SUB1        0.023
    115 H472        9.3630   -6.4890   16.7310 H         1 SUB1        0.023
    116 H473       10.6730   -5.4620   16.2120 H         1 SUB1        0.023
@<TRIPOS>BOND
     1    1    2 2  
     2    1    3 am 
     3   12    1 am 
     4    3    4 1  
     5    3    5 1  
     6    4   68 1  
     7    4   69 1  
     8    4   70 1  
     9    5    6 1  
    10    5   71 1  
    11    5   72 1  
    12    6    7 ar 
    13    6    8 ar 
    14    7    9 ar 
    15    7   73 1  
    16    8   10 ar 
    17    9   11 ar 
    18    9   74 1  
    19   10   11 ar 
    20   10   75 1  
    21   11   76 1  
    22   13   12 1  
    23   12   77 1  
    24   14   13 1  
    25   13   16 1  
    26   13   78 1  
    27   14   15 2  
    28   19   14 am 
    29   16   17 1  
    30   16   18 1  
    31   16   79 1  
    32   17   80 1  
    33   17   81 1  
    34   17   82 1  
    35   18   83 1  
    36   18   84 1  
    37   18   85 1  
    38   20   19 1  
    39   19   86 1  
    40   20   21 1  
    41   28   20 1  
    42   20   87 1  
    43   21   22 1  
    44   21   88 1  
    45   21   89 1  
    46   22   23 ar 
    47   22   27 ar 
    48   23   24 ar 
    49   23   90 1  
    50   24   25 ar 
    51   24   91 1  
    52   26   25 ar 
    53   25   92 1  
    54   27   26 ar 
    55   26   93 1  
    56   27   94 1  
    57   28   29 1  
    58   31   28 1  
    59   28   95 1  
    60   29   96 1  
    61   31   33 1  
    62   31   98 1  
    63   33   34 1  
    64   33  100 1  
    65   34   35 1  
    66   34  101 1  
    67   34  102 1  
    68   35   36 ar 
    69   35   40 ar 
    70   36   37 ar 
    71   36  103 1  
    72   37   38 ar 
    73   37  104 1  
    74   39   38 ar 
    75   38  105 1  
    76   40   39 ar 
    77   39  106 1  
    78   40  107 1  
    79   42   41 1  
    80   41   48 am 
    81   43   42 1  
    82   42   45 1  
    83   43   44 2  
    84   45   46 1  
    85   45   47 1  
    86   48   49 2  
    87   48   50 am 
    88   50   51 1  
    89   51   59 1  
    90   51   66 1  
    91   51   67 1  
    92   50   52 1  
    93   52   53 1  
    94   52   60 1  
    95   52   61 1  
    96   53   54 ar 
    97   53   55 ar 
    98   54   56 ar 
    99   54   62 1  
   100   55   57 ar 
   101   56   58 ar 
   102   56   63 1  
   103   57   58 ar 
   104   57   64 1  
   105   58   65 1  
   106   47  116 1  
   107   47  115 1  
   108   47  114 1  
   109   46  113 1  
   110   46  112 1  
   111   46  111 1  
   112   45  110 1  
   113   42  109 1  
   114   41  108 1  
   115   32   99 1  
   116   30   97 1  
   117   32   43 am 
   118   33   32 1  
   119   31   30 1  
@<TRIPOS>SUBSTRUCTURE
     1 SUB1        1 GROUP

