2azr_ligand
  -I-interpret- 

 22 23  0  0  0  0  0  0  0  0999 V2000
   46.4550   12.2720    2.9360 C   0  0  0  0  0
   46.4850   11.0190    2.3170 C   0  0  0  0  0
   45.8240   10.8500    1.1090 C   0  0  0  0  0
   45.1360   11.8170    0.4610 N   0  0  0  0  0
   45.1370   13.0150    1.0940 C   0  0  0  0  0
   45.7540   13.3290    2.3110 C   0  0  0  0  0
   44.3260   14.3420    0.4060 S   0  0  0  0  0
   44.7650   15.3620    1.7120 C   0  0  0  0  0
   45.5370   14.7090    2.6630 C   0  0  0  0  0
   44.3010   16.8600    1.7050 C   0  0  0  0  0
   43.8000   17.2620    0.6140 O   0  0  0  0  0
   46.0160   15.2980    3.8050 O   0  0  0  0  0
   47.2510   16.0130    3.6410 C   0  0  0  0  0
   47.4750   16.9630    4.8310 C   0  0  0  0  0
   48.5250   17.6360    4.7770 O   0  0  0  0  0
   44.4540   17.5450    2.7620 O   0  5  0  0  0
   46.6160   16.9760    5.7460 O   0  5  0  0  0
   46.9644   12.4318    3.8863 H   0  0  0  0  0
   47.0195   10.1875    2.7764 H   0  0  0  0  0
   45.8622    9.8633    0.6475 H   0  0  0  0  0
   47.2069   16.5963    2.7213 H   0  0  0  0  0
   48.0736   15.2994    3.5935 H   0  0  0  0  0
  1  2  4  0  0  0
  1  6  4  0  0  0
  2  3  4  0  0  0
  3  4  4  0  0  0
  4  5  4  0  0  0
  5  6  4  0  0  0
  5  7  1  0  0  0
  6  9  1  0  0  0
  7  8  1  0  0  0
  8  9  2  0  0  0
  8 10  1  0  0  0
  9 12  1  0  0  0
 10 11  2  0  0  0
 10 16  1  0  0  0
 12 13  1  0  0  0
 13 14  1  0  0  0
 14 15  2  0  0  0
 14 17  1  0  0  0
  1 18  1  0  0  0
  2 19  1  0  0  0
  3 20  1  0  0  0
 13 21  1  0  0  0
 13 22  1  0  0  0
M  END
$$$$
