### 
### Created by X-TOOL on Sun Jun  3 11:16:49 2007
### 

@<TRIPOS>MOLECULE
2azr_ligand
   22    23     1     0     0
SMALL
GAST_HUCK


@<TRIPOS>ATOM
      1 C1         46.4550   12.2720    2.9360 C.ar      1 SUB1       -0.005
      2 C2         46.4850   11.0190    2.3170 C.ar      1 SUB1       -0.014
      3 C3         45.8240   10.8500    1.1090 C.ar      1 SUB1        0.030
      4 N1         45.1360   11.8170    0.4610 N.ar      1 SUB1       -0.250
      5 C5         45.1370   13.0150    1.0940 C.ar      1 SUB1        0.169
      6 C6         45.7540   13.3290    2.3110 C.ar      1 SUB1        0.131
      7 S10        44.3260   14.3420    0.4060 S.3       1 SUB1        0.091
      8 C11        44.7650   15.3620    1.7120 C.2       1 SUB1        0.228
      9 C12        45.5370   14.7090    2.6630 C.2       1 SUB1        0.256
     10 C13        44.3010   16.8600    1.7050 C.2       1 SUB1        0.154
     11 O14        43.8000   17.2620    0.6140 O.2       1 SUB1       -0.538
     12 O15        46.0160   15.2980    3.8050 O.3       1 SUB1       -0.229
     13 C16        47.2510   16.0130    3.6410 C.3       1 SUB1        0.206
     14 C17        47.4750   16.9630    4.8310 C.2       1 SUB1        0.380
     15 O20        48.5250   17.6360    4.7770 O.2       1 SUB1       -0.259
     16 O21        44.4540   17.5450    2.7620 O.2       1 SUB1       -0.538
     17 O22        46.6160   16.9760    5.7460 O.2       1 SUB1       -0.259
     18 H          46.9644   12.4318    3.8863 H         1 SUB1        0.094
     19 H          47.0195   10.1875    2.7764 H         1 SUB1        0.072
     20 H          45.8622    9.8633    0.6475 H         1 SUB1        0.099
     21 H          47.2069   16.5963    2.7213 H         1 SUB1        0.090
     22 H          48.0736   15.2994    3.5935 H         1 SUB1        0.090
@<TRIPOS>BOND
     1    1    2 ar 
     2    1    6 ar 
     3    2    3 ar 
     4    3    4 ar 
     5    4    5 ar 
     6    5    6 ar 
     7    5    7 1  
     8    6    9 1  
     9    7    8 1  
    10    8    9 2  
    11    8   10 1  
    12    9   12 1  
    13   10   11 2  
    14   10   16 2  
    15   12   13 1  
    16   13   14 1  
    17   14   15 2  
    18   14   17 2  
    19    1   18 1  
    20    2   19 1  
    21    3   20 1  
    22   13   21 1  
    23   13   22 1  
@<TRIPOS>SUBSTRUCTURE
     1 SUB1        1 GROUP

