### 
### Created by X-TOOL on Tue Oct 25 02:03:19 2005
### 

@<TRIPOS>MOLECULE
1yqy_ligand
   42    43     1     0     0
SMALL
GAST_HUCK


@<TRIPOS>ATOM
      1 C1          9.2270   20.0170   27.7680 C.ar      1 SUB1        0.098
      2 C2          8.2930   19.4750   28.7070 C.ar      1 SUB1       -0.036
      3 C3          8.0500   20.1670   29.9210 C.ar      1 SUB1       -0.010
      4 C4          8.7620   21.3710   30.1500 C.ar      1 SUB1        0.133
      5 C5          9.7370   21.8950   29.2310 C.ar      1 SUB1       -0.033
      6 C6          9.9470   21.2150   28.0390 C.ar      1 SUB1       -0.044
      7 F10         8.5230   22.0660   31.2740 F         1 SUB1       -0.189
      8 C11         7.0320   19.6580   30.9070 C.3       1 SUB1       -0.030
      9 S15         9.4700   19.1960   26.2210 S.o2      1 SUB1        0.067
     10 N16        10.4390   17.7900   26.5140 N.am      1 SUB1       -0.226
     11 C17        11.8990   17.9240   26.5070 C.3       1 SUB1        0.131
     12 C18        12.4690   18.4380   27.8460 C.2       1 SUB1        0.221
     13 N19        13.3900   19.4380   27.7230 N.am      1 SUB1       -0.163
     14 O20        13.9690   19.9520   28.8730 O.3       1 SUB1       -0.272
     15 O21        12.1600   17.9990   28.9170 O.2       1 SUB1       -0.395
     16 O22        10.3620   19.9620   25.4200 O.2       1 SUB1       -0.151
     17 O23         8.1790   18.7420   25.7310 O.2       1 SUB1       -0.151
     18 C27        12.6710   16.6260   26.2000 C.3       1 SUB1        0.000
     19 C29        12.3710   15.9420   24.8220 C.3       1 SUB1       -0.023
     20 C30        13.1600   14.6640   24.5620 C.3       1 SUB1        0.048
     21 O31        14.5420   14.9270   24.7000 O.3       1 SUB1       -0.380
     22 C32        14.9420   15.4300   25.9930 C.3       1 SUB1        0.048
     23 C33        14.2100   16.7480   26.3050 C.3       1 SUB1       -0.023
     24 H21         7.7770   18.5460   28.4929 H         1 SUB1        0.056
     25 H51        10.2926   22.7964   29.4630 H         1 SUB1        0.059
     26 H61        10.6585   21.5958   27.3153 H         1 SUB1        0.057
     27 H81         6.6017   18.7160   30.5364 H         1 SUB1        0.038
     28 H82         6.2326   20.4041   31.0269 H         1 SUB1        0.038
     29 H83         7.5180   19.4821   31.8780 H         1 SUB1        0.038
     30 H101       10.0102   16.9029   26.6848 H         1 SUB1        0.170
     31 H111       12.1418   18.6567   25.7233 H         1 SUB1        0.075
     32 H181       12.3530   15.9159   26.9775 H         1 SUB1        0.034
     33 H191       12.6089   16.6603   24.0236 H         1 SUB1        0.029
     34 H192       11.2993   15.6965   24.7871 H         1 SUB1        0.029
     35 H201       12.9547   14.3075   23.5418 H         1 SUB1        0.056
     36 H202       12.8593   13.8935   25.2871 H         1 SUB1        0.056
     37 H221       16.0273   15.6094   25.9925 H         1 SUB1        0.056
     38 H222       14.6937   14.6860   26.7642 H         1 SUB1        0.056
     39 H231       14.4678   17.0580   27.3284 H         1 SUB1        0.029
     40 H232       14.5500   17.5145   25.5930 H         1 SUB1        0.029
     41 H131       13.6417   19.7923   26.8224 H         1 SUB1        0.222
     42 H141       14.5854   20.6355   28.6376 H         1 SUB1        0.249
@<TRIPOS>BOND
     1    1    2 ar 
     2    1    6 ar 
     3    1    9 1  
     4    2    3 ar 
     5    3    4 ar 
     6    3    8 1  
     7    4    5 ar 
     8    4    7 1  
     9    5    6 ar 
    10    9   10 1  
    11    9   16 2  
    12    9   17 2  
    13   10   11 1  
    14   11   12 1  
    15   11   18 1  
    16   12   13 am 
    17   12   15 2  
    18   13   14 1  
    19   18   19 1  
    20   18   23 1  
    21   19   20 1  
    22   20   21 1  
    23   21   22 1  
    24   22   23 1  
    25    2   24 1  
    26    5   25 1  
    27    6   26 1  
    28    8   27 1  
    29    8   28 1  
    30    8   29 1  
    31   10   30 1  
    32   11   31 1  
    33   18   32 1  
    34   19   33 1  
    35   19   34 1  
    36   20   35 1  
    37   20   36 1  
    38   22   37 1  
    39   22   38 1  
    40   23   39 1  
    41   23   40 1  
    42   13   41 1  
    43   14   42 1  
@<TRIPOS>SUBSTRUCTURE
     1 SUB1        1 GROUP

