### 
### Created by X-TOOL on Sun Jun  3 11:20:18 2007
### 

@<TRIPOS>MOLECULE
2d3z_ligand
   39    41     1     0     0
SMALL
GAST_HUCK


@<TRIPOS>ATOM
      1 C1         13.1800   31.3790   73.3040 C.ar      1 SUB1       -0.009
      2 C2         13.1300   30.3960   72.2700 C.ar      1 SUB1        0.153
      3 C3         11.8850   29.7900   71.9620 C.ar      1 SUB1       -0.009
      4 C4         10.7110   30.1540   72.6660 C.ar      1 SUB1       -0.032
      5 C5         10.7390   31.1360   73.7000 C.ar      1 SUB1        0.033
      6 C6         11.9960   31.7470   74.0120 C.ar      1 SUB1       -0.032
      7 C7          7.0760   31.9050   74.9850 C.2       1 SUB1        0.185
      8 C8          7.9150   32.2730   76.0280 C.2       1 SUB1        0.177
      9 C9          9.2970   32.0410   75.6900 C.2       1 SUB1        0.032
     10 C10         9.4820   31.5070   74.4150 C.2       1 SUB1        0.098
     11 S11         7.9570   31.3000   73.6670 S.3       1 SUB1        0.064
     12 F12        14.2100   30.0530   71.6110 F         1 SUB1       -0.166
     13 C14         5.5950   32.0130   74.9890 C.2       1 SUB1        0.133
     14 O15         4.9690   31.4060   74.0950 O.2       1 SUB1       -0.544
     15 O16         5.0480   32.7110   75.8690 O.2       1 SUB1       -0.544
     16 N17         7.4610   32.8240   77.3080 N.am      1 SUB1       -0.146
     17 S18         8.1820   34.1980   78.0070 S.o2      1 SUB1        0.102
     18 C19         7.3500   36.3870   76.4550 C.ar      1 SUB1       -0.041
     19 C20         8.4490   35.5690   76.8630 C.ar      1 SUB1        0.112
     20 C21         9.7580   35.8370   76.3620 C.ar      1 SUB1       -0.041
     21 C22         9.9680   36.9150   75.4580 C.ar      1 SUB1       -0.059
     22 C23         8.8750   37.7290   75.0520 C.ar      1 SUB1       -0.046
     23 C24         7.5670   37.4640   75.5520 C.ar      1 SUB1       -0.059
     24 C25         9.1030   38.8670   74.0940 C.3       1 SUB1       -0.031
     25 O26         9.4660   33.7560   78.5380 O.2       1 SUB1       -0.141
     26 O27         7.2740   34.6330   79.0650 O.2       1 SUB1       -0.141
     27 H          14.1293   31.8522   73.5549 H         1 SUB1        0.066
     28 H          11.8312   29.0369   71.1759 H         1 SUB1        0.066
     29 H           9.7662   29.6734   72.4121 H         1 SUB1        0.074
     30 H          12.0494   32.5005   74.7978 H         1 SUB1        0.074
     31 H          10.1211   32.2624   76.3682 H         1 SUB1        0.064
     32 H           6.6886   32.3697   77.7952 H         1 SUB1        0.254
     33 H           6.3484   36.1858   76.8350 H         1 SUB1        0.062
     34 H          10.5977   35.2151   76.6723 H         1 SUB1        0.062
     35 H          10.9685   37.1175   75.0758 H         1 SUB1        0.056
     36 H           6.7299   38.0891   75.2412 H         1 SUB1        0.056
     37 H           8.5059   38.7093   73.1958 H         1 SUB1        0.039
     38 H           8.8087   39.8035   74.5677 H         1 SUB1        0.039
     39 H          10.1590   38.9095   73.8271 H         1 SUB1        0.039
@<TRIPOS>BOND
     1    1    2 ar 
     2    6    1 ar 
     3    3    2 ar 
     4    2   12 1  
     5    4    3 ar 
     6    5    4 ar 
     7    5    6 ar 
     8   10    5 1  
     9    8    7 2  
    10    7   11 1  
    11    7   13 1  
    12    9    8 1  
    13    8   16 1  
    14    9   10 2  
    15   10   11 1  
    16   13   14 2  
    17   13   15 2  
    18   16   17 1  
    19   17   19 1  
    20   17   25 2  
    21   17   26 2  
    22   19   18 ar 
    23   18   23 ar 
    24   19   20 ar 
    25   20   21 ar 
    26   21   22 ar 
    27   22   23 ar 
    28   22   24 1  
    29    1   27 1  
    30    3   28 1  
    31    4   29 1  
    32    6   30 1  
    33    9   31 1  
    34   16   32 1  
    35   18   33 1  
    36   20   34 1  
    37   21   35 1  
    38   23   36 1  
    39   24   37 1  
    40   24   38 1  
    41   24   39 1  
@<TRIPOS>SUBSTRUCTURE
     1 SUB1        1 GROUP

