2d3z_ligand
  -I-interpret- 

 39 41  0  0  0  0  0  0  0  0999 V2000
   13.1800   31.3790   73.3040 C   0  0  0  0  0
   13.1300   30.3960   72.2700 C   0  0  0  0  0
   11.8850   29.7900   71.9620 C   0  0  0  0  0
   10.7110   30.1540   72.6660 C   0  0  0  0  0
   10.7390   31.1360   73.7000 C   0  0  0  0  0
   11.9960   31.7470   74.0120 C   0  0  0  0  0
    7.0760   31.9050   74.9850 C   0  0  0  0  0
    7.9150   32.2730   76.0280 C   0  0  0  0  0
    9.2970   32.0410   75.6900 C   0  0  0  0  0
    9.4820   31.5070   74.4150 C   0  0  0  0  0
    7.9570   31.3000   73.6670 S   0  0  0  0  0
   14.2100   30.0530   71.6110 F   0  0  0  0  0
    5.5950   32.0130   74.9890 C   0  0  0  0  0
    4.9690   31.4060   74.0950 O   0  0  0  0  0
    5.0480   32.7110   75.8690 O   0  5  0  0  0
    7.4610   32.8240   77.3080 N   0  0  0  0  0
    8.1820   34.1980   78.0070 S   0  0  0  0  0
    7.3500   36.3870   76.4550 C   0  0  0  0  0
    8.4490   35.5690   76.8630 C   0  0  0  0  0
    9.7580   35.8370   76.3620 C   0  0  0  0  0
    9.9680   36.9150   75.4580 C   0  0  0  0  0
    8.8750   37.7290   75.0520 C   0  0  0  0  0
    7.5670   37.4640   75.5520 C   0  0  0  0  0
    9.1030   38.8670   74.0940 C   0  0  0  0  0
    9.4660   33.7560   78.5380 O   0  0  0  0  0
    7.2740   34.6330   79.0650 O   0  0  0  0  0
   14.1293   31.8522   73.5549 H   0  0  0  0  0
   11.8312   29.0369   71.1759 H   0  0  0  0  0
    9.7662   29.6734   72.4121 H   0  0  0  0  0
   12.0494   32.5005   74.7978 H   0  0  0  0  0
   10.1211   32.2624   76.3682 H   0  0  0  0  0
    6.6886   32.3697   77.7952 H   0  0  0  0  0
    6.3484   36.1858   76.8350 H   0  0  0  0  0
   10.5977   35.2151   76.6723 H   0  0  0  0  0
   10.9685   37.1175   75.0758 H   0  0  0  0  0
    6.7299   38.0891   75.2412 H   0  0  0  0  0
    8.5059   38.7093   73.1958 H   0  0  0  0  0
    8.8087   39.8035   74.5677 H   0  0  0  0  0
   10.1590   38.9095   73.8271 H   0  0  0  0  0
  1  2  4  0  0  0
  6  1  4  0  0  0
  3  2  4  0  0  0
  2 12  1  0  0  0
  4  3  4  0  0  0
  5  4  4  0  0  0
  5  6  4  0  0  0
 10  5  1  0  0  0
  8  7  2  0  0  0
  7 11  1  0  0  0
  7 13  1  0  0  0
  9  8  1  0  0  0
  8 16  1  0  0  0
  9 10  2  0  0  0
 10 11  1  0  0  0
 13 14  2  0  0  0
 13 15  1  0  0  0
 16 17  1  0  0  0
 17 19  1  0  0  0
 17 25  2  0  0  0
 17 26  2  0  0  0
 19 18  4  0  0  0
 18 23  4  0  0  0
 19 20  4  0  0  0
 20 21  4  0  0  0
 21 22  4  0  0  0
 22 23  4  0  0  0
 22 24  1  0  0  0
  1 27  1  0  0  0
  3 28  1  0  0  0
  4 29  1  0  0  0
  6 30  1  0  0  0
  9 31  1  0  0  0
 16 32  1  0  0  0
 18 33  1  0  0  0
 20 34  1  0  0  0
 21 35  1  0  0  0
 23 36  1  0  0  0
 24 37  1  0  0  0
 24 38  1  0  0  0
 24 39  1  0  0  0
M  END
$$$$
