### 
### Created by X-TOOL on Sun Jun  3 11:17:54 2007
### 

@<TRIPOS>MOLECULE
2c4v_ligand
   18    17     1     0     0
SMALL
GAST_HUCK


@<TRIPOS>ATOM
      1 C1         97.2030  -23.6670   85.1630 C.2       1 SUB1        0.348
      2 O1         98.4370  -23.6400   85.2660 O.2       1 SUB1       -0.262
      3 O2         96.6470  -23.3400   84.0380 O.2       1 SUB1       -0.262
      4 C2         96.3700  -24.0250   86.3660 C.3       1 SUB1        0.101
      5 C3         96.9930  -24.1460   87.7440 C.3       1 SUB1        0.204
      6 O7         95.8340  -24.5180   88.5930 O.3       1 SUB1       -0.377
      7 C4         97.7070  -22.8610   88.2730 C.3       1 SUB1        0.101
      8 C5         96.8220  -21.6300   88.4200 C.2       1 SUB1        0.348
      9 O3         96.4990  -20.9250   87.4240 O.2       1 SUB1       -0.262
     10 O4         96.3250  -21.3820   89.5450 O.2       1 SUB1       -0.262
     11 C6         97.9700  -25.3290   87.7970 C.2       1 SUB1        0.393
     12 O5         99.2030  -25.1580   88.1180 O.2       1 SUB1       -0.241
     13 O6         97.5040  -26.4770   87.5650 O.2       1 SUB1       -0.241
     14 H          96.0136  -25.0320   86.1490 H         1 SUB1        0.051
     15 H          95.6760  -23.1901   86.4634 H         1 SUB1        0.051
     16 H          95.4614  -25.3452   88.2793 H         1 SUB1        0.209
     17 H          98.4714  -22.6069   87.5386 H         1 SUB1        0.051
     18 H          98.0741  -23.0994   89.2712 H         1 SUB1        0.051
@<TRIPOS>BOND
     1    1    2 2  
     2    1    3 2  
     3    1    4 1  
     4    4    5 1  
     5    5    6 1  
     6    5    7 1  
     7    5   11 1  
     8    7    8 1  
     9    8    9 2  
    10    8   10 2  
    11   11   12 2  
    12   11   13 2  
    13    4   14 1  
    14    4   15 1  
    15    6   16 1  
    16    7   17 1  
    17    7   18 1  
@<TRIPOS>SUBSTRUCTURE
     1 SUB1        1 GROUP

