### 
### Created by X-TOOL on Mon Oct 24 21:55:11 2005
### 

@<TRIPOS>MOLECULE
1u1w_ligand
   17    17     1     0     0
SMALL
GAST_HUCK


@<TRIPOS>ATOM
      1 O8          8.1600   30.2580   23.6940 O.co2     1 SUB1       -0.557
      2 C7          7.5910   31.1680   23.0520 C.2       1 SUB1        0.054
      3 O9          7.1890   32.2360   23.6110 O.co2     1 SUB1       -0.557
      4 C2          7.3090   31.0160   21.5910 C.ar      1 SUB1        0.006
      5 C1          6.7550   32.1210   20.9210 C.ar      1 SUB1       -0.076
      6 C6          6.4140   31.9890   19.5590 C.ar      1 SUB1       -0.084
      7 C5          6.6280   30.8120   18.8830 C.ar      1 SUB1       -0.045
      8 C4          7.1940   29.7280   19.5520 C.ar      1 SUB1        0.108
      9 O11         7.3980   28.5410   18.9400 O.3       1 SUB1       -0.340
     10 C3          7.5530   29.8180   20.9430 C.ar      1 SUB1        0.084
     11 N10         8.1880   28.6840   21.4980 N.pl3     1 SUB1       -0.332
     12 H51         6.5929   33.0576   21.4420 H         1 SUB1        0.045
     13 H61         5.9752   32.8311   19.0360 H         1 SUB1        0.050
     14 H71         6.3585   30.7270   17.8365 H         1 SUB1        0.049
     15 H91         7.7899   27.9321   19.5550 H         1 SUB1        0.243
     16 H111        8.4702   28.6850   22.4886 H         1 SUB1        0.177
     17 H112        8.3686   27.8565   20.9119 H         1 SUB1        0.177
@<TRIPOS>BOND
     1    1    2 2  
     2    2    3 2  
     3    2    4 1  
     4    4    5 ar 
     5    4   10 ar 
     6    5    6 ar 
     7    6    7 ar 
     8    7    8 ar 
     9    8    9 1  
    10    8   10 ar 
    11   10   11 1  
    12    5   12 1  
    13    6   13 1  
    14    7   14 1  
    15    9   15 1  
    16   11   16 1  
    17   11   17 1  
@<TRIPOS>SUBSTRUCTURE
     1 SUB1        1 GROUP

