### 
### Created by X-TOOL on Tue Oct 25 02:36:22 2005
### 

@<TRIPOS>MOLECULE
1ha2_ligand
   39    41     1     0     0
SMALL
GAST_HUCK


@<TRIPOS>ATOM
      1 C1         29.4460   13.7280   12.6460 C.3       1 SUB1        0.010
      2 C2         28.9650   14.3650   11.3650 C.2       1 SUB1        0.105
      3 O3         27.6030   14.5150   11.0770 O.2       1 SUB1       -0.392
      4 C4         29.9300   14.9030   10.3560 C.3       1 SUB1        0.039
      5 C5         31.0190   13.8500   10.0360 C.3       1 SUB1        0.039
      6 C6         30.6330   12.8810    8.9460 C.ar      1 SUB1       -0.031
      7 C7         30.0900   13.2020    7.6040 C.ar      1 SUB1       -0.059
      8 C8         29.7610   12.1710    6.6290 C.ar      1 SUB1       -0.068
      9 C9         29.9430   10.7960    6.9190 C.ar      1 SUB1       -0.069
     10 C10        30.4620   10.4420    8.2080 C.ar      1 SUB1       -0.068
     11 C11        30.8070   11.4600    9.2200 C.ar      1 SUB1       -0.059
     12 C12        32.4210   14.4960    9.7730 C.2       1 SUB1        0.074
     13 C13        33.6760   14.0020   10.2420 C.2       1 SUB1        0.110
     14 O14        33.8380   12.9030   10.9990 O.3       1 SUB1       -0.332
     15 C15        35.0060   14.6680    9.9100 C.ar      1 SUB1        0.052
     16 C16        36.3320   14.2380   10.3120 C.ar      1 SUB1       -0.056
     17 C17        37.4980   14.9630    9.8910 C.ar      1 SUB1       -0.070
     18 C18        37.3600   16.1260    9.0710 C.ar      1 SUB1       -0.068
     19 C19        36.0950   16.5840    8.6680 C.ar      1 SUB1       -0.024
     20 C20        34.9140   15.8670    9.0800 C.ar      1 SUB1        0.139
     21 O21        33.6890   16.3340    8.6490 O.3       1 SUB1       -0.215
     22 C22        32.4480   15.7340    8.9390 C.2       1 SUB1        0.257
     23 O23        31.5210   16.3030    8.4460 O.2       1 SUB1       -0.385
     24 H11        30.5460   13.7197   12.6508 H         1 SUB1        0.046
     25 H12        29.0885   14.3071   13.5102 H         1 SUB1        0.046
     26 H13        29.0797   12.6928   12.7107 H         1 SUB1        0.046
     27 H41        29.3941   15.1483    9.4272 H         1 SUB1        0.054
     28 H42        30.4184   15.8037   10.7563 H         1 SUB1        0.054
     29 H51        31.1408   13.2507   10.9503 H         1 SUB1        0.059
     30 H71        29.9322   14.2412    7.3390 H         1 SUB1        0.056
     31 H81        29.3687   12.4618    5.6612 H         1 SUB1        0.060
     32 H91        29.6972   10.0342    6.1880 H         1 SUB1        0.056
     33 H101       30.6055    9.3944    8.4468 H         1 SUB1        0.060
     34 H111       31.1958   11.1458   10.1819 H         1 SUB1        0.056
     35 H141       34.7619   12.7797   11.1826 H         1 SUB1        0.250
     36 H161       36.4439   13.3596   10.9372 H         1 SUB1        0.060
     37 H171       38.4832   14.6283   10.1951 H         1 SUB1        0.054
     38 H181       38.2468   16.6634    8.7550 H         1 SUB1        0.060
     39 H191       36.0071   17.4710    8.0511 H         1 SUB1        0.056
@<TRIPOS>BOND
     1    1    2 1  
     2    2    3 2  
     3    2    4 1  
     4    4    5 1  
     5    5    6 1  
     6    5   12 1  
     7    6    7 ar 
     8    6   11 ar 
     9    7    8 ar 
    10    8    9 ar 
    11    9   10 ar 
    12   10   11 ar 
    13   12   13 2  
    14   12   22 1  
    15   13   14 1  
    16   13   15 1  
    17   15   16 ar 
    18   15   20 ar 
    19   16   17 ar 
    20   17   18 ar 
    21   18   19 ar 
    22   19   20 ar 
    23   20   21 1  
    24   21   22 1  
    25   22   23 2  
    26    1   24 1  
    27    1   25 1  
    28    1   26 1  
    29    4   27 1  
    30    4   28 1  
    31    5   29 1  
    32    7   30 1  
    33    8   31 1  
    34    9   32 1  
    35   10   33 1  
    36   11   34 1  
    37   14   35 1  
    38   16   36 1  
    39   17   37 1  
    40   18   38 1  
    41   19   39 1  
@<TRIPOS>SUBSTRUCTURE
     1 SUB1        1 GROUP

