1ha2_ligand
  -I-interpret- 

 39 41  0  0  0  0  0  0  0  0999 V2000
   29.4460   13.7280   12.6460 C   0  0  0  0  0
   28.9650   14.3650   11.3650 C   0  0  0  0  0
   27.6030   14.5150   11.0770 O   0  0  0  0  0
   29.9300   14.9030   10.3560 C   0  0  0  0  0
   31.0190   13.8500   10.0360 C   0  0  0  0  0
   30.6330   12.8810    8.9460 C   0  0  0  0  0
   30.0900   13.2020    7.6040 C   0  0  0  0  0
   29.7610   12.1710    6.6290 C   0  0  0  0  0
   29.9430   10.7960    6.9190 C   0  0  0  0  0
   30.4620   10.4420    8.2080 C   0  0  0  0  0
   30.8070   11.4600    9.2200 C   0  0  0  0  0
   32.4210   14.4960    9.7730 C   0  0  0  0  0
   33.6760   14.0020   10.2420 C   0  0  0  0  0
   33.8380   12.9030   10.9990 O   0  0  0  0  0
   35.0060   14.6680    9.9100 C   0  0  0  0  0
   36.3320   14.2380   10.3120 C   0  0  0  0  0
   37.4980   14.9630    9.8910 C   0  0  0  0  0
   37.3600   16.1260    9.0710 C   0  0  0  0  0
   36.0950   16.5840    8.6680 C   0  0  0  0  0
   34.9140   15.8670    9.0800 C   0  0  0  0  0
   33.6890   16.3340    8.6490 O   0  0  0  0  0
   32.4480   15.7340    8.9390 C   0  0  0  0  0
   31.5210   16.3030    8.4460 O   0  0  0  0  0
   30.5460   13.7197   12.6508 H   0  0  0  0  0
   29.0885   14.3071   13.5102 H   0  0  0  0  0
   29.0797   12.6928   12.7107 H   0  0  0  0  0
   29.3941   15.1483    9.4272 H   0  0  0  0  0
   30.4184   15.8037   10.7563 H   0  0  0  0  0
   31.1408   13.2507   10.9503 H   0  0  0  0  0
   29.9322   14.2412    7.3390 H   0  0  0  0  0
   29.3687   12.4618    5.6612 H   0  0  0  0  0
   29.6972   10.0342    6.1880 H   0  0  0  0  0
   30.6055    9.3944    8.4468 H   0  0  0  0  0
   31.1958   11.1458   10.1819 H   0  0  0  0  0
   34.7619   12.7797   11.1826 H   0  0  0  0  0
   36.4439   13.3596   10.9372 H   0  0  0  0  0
   38.4832   14.6283   10.1951 H   0  0  0  0  0
   38.2468   16.6634    8.7550 H   0  0  0  0  0
   36.0071   17.4710    8.0511 H   0  0  0  0  0
  1  2  1  0  0  0
  2  3  2  0  0  0
  2  4  1  0  0  0
  4  5  1  0  0  0
  5  6  1  0  0  0
  5 12  1  0  0  0
  6  7  4  0  0  0
  6 11  4  0  0  0
  7  8  4  0  0  0
  8  9  4  0  0  0
  9 10  4  0  0  0
 10 11  4  0  0  0
 12 13  2  0  0  0
 12 22  1  0  0  0
 13 14  1  0  0  0
 13 15  1  0  0  0
 15 16  4  0  0  0
 15 20  4  0  0  0
 16 17  4  0  0  0
 17 18  4  0  0  0
 18 19  4  0  0  0
 19 20  4  0  0  0
 20 21  1  0  0  0
 21 22  1  0  0  0
 22 23  2  0  0  0
  1 24  1  0  0  0
  1 25  1  0  0  0
  1 26  1  0  0  0
  4 27  1  0  0  0
  4 28  1  0  0  0
  5 29  1  0  0  0
  7 30  1  0  0  0
  8 31  1  0  0  0
  9 32  1  0  0  0
 10 33  1  0  0  0
 11 34  1  0  0  0
 14 35  1  0  0  0
 16 36  1  0  0  0
 17 37  1  0  0  0
 18 38  1  0  0  0
 19 39  1  0  0  0
M  END
$$$$
