### 
### Created by X-TOOL on Mon Oct 24 23:21:39 2005
### 

@<TRIPOS>MOLECULE
1sts_ligand
  112   114     1     0     0
SMALL
GAST_HUCK


@<TRIPOS>ATOM
      1 N          15.4120   -2.5770   21.1650 N.4       1 SUB1        0.239
      2 CA         15.7730   -1.1840   20.9680 C.3       1 SUB1        0.074
      3 C          17.1860   -1.1900   21.5450 C.2       1 SUB1        0.229
      4 O          17.3380   -1.9530   22.4970 O.2       1 SUB1       -0.391
      5 CB         15.0060   -0.1770   21.8490 C.3       1 SUB1        0.042
      6 CG         13.5060   -0.2560   22.1240 C.ar      1 SUB1       -0.035
      7 CD1        12.7320   -1.3930   21.8690 C.ar      1 SUB1       -0.060
      8 CD2        12.9030    0.8790   22.6730 C.ar      1 SUB1       -0.060
      9 CE1        11.3640   -1.3850   22.1620 C.ar      1 SUB1       -0.069
     10 CE2        11.5370    0.8800   22.9620 C.ar      1 SUB1       -0.069
     11 CZ         10.7630   -0.2500   22.7070 C.ar      1 SUB1       -0.069
     12 H11        15.5950   -2.7090   22.1880 H         1 SUB1        0.202
     13 H12        14.4360   -2.7860   20.8990 H         1 SUB1        0.202
     14 H13        16.0890   -3.1850   20.6680 H         1 SUB1        0.202
     15 N          18.2050   -0.5270   20.9890 N.am      1 SUB1       -0.260
     16 CA         19.5640   -0.4610   21.5470 C.3       1 SUB1        0.140
     17 C          20.6430    0.1660   20.6640 C.2       1 SUB1        0.205
     18 O          21.8170   -0.2120   20.5850 O.2       1 SUB1       -0.394
     19 CB         20.1360   -1.8040   21.9970 C.3       1 SUB1        0.031
     20 SG         20.7260   -1.4620   23.6720 S.3       1 SUB1       -0.174
     21 H151       18.0190    0.0170   20.1940 H         1 SUB1        0.189
     22 N          20.1630    1.1340   19.9130 N.am      1 SUB1       -0.262
     23 CA         20.9400    1.9930   19.0470 C.3       1 SUB1        0.137
     24 C          19.8790    3.0810   18.8990 C.2       1 SUB1        0.208
     25 O          18.6960    2.7630   18.6790 O.2       1 SUB1       -0.394
     26 CB         21.3250    1.5140   17.6110 C.3       1 SUB1        0.014
     27 CG         22.2580    2.5970   16.9780 C.2       1 SUB1       -0.003
     28 ND1        21.7630    3.6490   16.3250 N.2       1 SUB1       -0.325
     29 CD2        23.6200    2.7390   17.2060 C.2       1 SUB1        0.029
     30 CE1        22.8080    4.4430   16.1470 C.2       1 SUB1        0.091
     31 NE2        23.8990    3.9080   16.6740 N.pl3     1 SUB1       -0.275
     32 H221       19.2080    1.3520   19.9910 H         1 SUB1        0.189
     33 H311       24.7820    4.3570   16.6640 H         1 SUB1        0.236
     34 N          20.2260    4.3630   19.1110 N.am      1 SUB1       -0.250
     35 CA         19.2780    5.4490   19.0130 C.3       1 SUB1        0.134
     36 C          18.5750    5.6420   17.6760 C.2       1 SUB1        0.204
     37 O          17.5010    6.2460   17.6490 O.2       1 SUB1       -0.394
     38 CB         20.0680    6.6940   19.3880 C.3       1 SUB1       -0.010
     39 CG         21.3890    6.2190   19.9510 C.3       1 SUB1       -0.028
     40 CD         21.5970    4.8610   19.3830 C.3       1 SUB1        0.037
     41 N          19.1800    5.1970   16.5620 N.am      1 SUB1       -0.264
     42 CA         18.6230    5.3950   15.2280 C.3       1 SUB1        0.133
     43 C          17.2180    4.8570   15.0490 C.2       1 SUB1        0.204
     44 O          16.3680    5.6160   14.5650 O.2       1 SUB1       -0.394
     45 CB         19.5540    4.7760   14.2030 C.3       1 SUB1        0.004
     46 CG         19.1250    5.0850   12.7710 C.3       1 SUB1        0.041
     47 CD         20.2050    4.8740   11.7200 C.2       1 SUB1        0.174
     48 OE1        21.3660    5.1360   11.9980 O.2       1 SUB1       -0.397
     49 NE2        19.9320    4.4070   10.5190 N.am      1 SUB1       -0.301
     50 H411       19.9990    4.6630   16.6420 H         1 SUB1        0.188
     51 H491       20.6830    4.2660    9.9190 H         1 SUB1        0.181
     52 H492       19.0070    4.2200   10.2790 H         1 SUB1        0.181
     53 N          16.8830    3.6080   15.3820 N.am      1 SUB1       -0.262
     54 CA         15.5030    3.2400   15.1710 C.3       1 SUB1        0.148
     55 C          14.9680    2.4980   16.3310 C.2       1 SUB1        0.206
     56 O          15.6630    1.7490   17.0100 O.2       1 SUB1       -0.394
     57 CB         15.2660    2.3580   13.9370 C.3       1 SUB1        0.077
     58 CG         15.1760    3.1570   12.6500 C.2       1 SUB1        0.178
     59 OD1        14.3070    4.0140   12.4070 O.2       1 SUB1       -0.397
     60 ND2        16.1310    2.8830   11.7880 N.am      1 SUB1       -0.301
     61 H531       17.4490    3.0240   15.9290 H         1 SUB1        0.189
     62 H601       16.0820    3.3120   10.9110 H         1 SUB1        0.181
     63 H602       16.8460    2.2710   12.0440 H         1 SUB1        0.181
     64 N          13.7280    2.9520   16.4870 N.am      1 SUB1       -0.261
     65 CA         12.7100    2.5560   17.4480 C.3       1 SUB1        0.156
     66 C          13.0550    1.9640   18.8200 C.2       1 SUB1        0.202
     67 O          14.1590    2.0670   19.3630 O.2       1 SUB1       -0.395
     68 CB         11.7690    1.6350   16.5790 C.3       1 SUB1        0.092
     69 OG1        10.4470    1.7990   17.0990 O.3       1 SUB1       -0.387
     70 CG2        12.2210    0.1630   16.5500 C.3       1 SUB1       -0.035
     71 H641       13.4370    3.6570   15.8680 H         1 SUB1        0.188
     72 H691       10.2148    2.7357   17.0949 H         1 SUB1        0.210
     73 N          12.0380    1.3770   19.4400 N.am      1 SUB1       -0.299
     74 H731       11.1710    1.3720   18.9660 H         1 SUB1        0.182
     75 H732       12.1550    1.0030   20.3270 H         1 SUB1        0.182
     76 H21        15.7227   -0.8963   19.9075 H         1 SUB1        0.112
     77 H51        15.1742    0.8090   21.3913 H         1 SUB1        0.051
     78 H52        15.4926   -0.2114   22.8349 H         1 SUB1        0.051
     79 H71        13.1913   -2.2787   21.4451 H         1 SUB1        0.056
     80 H81        13.4982    1.7621   22.8753 H         1 SUB1        0.056
     81 H91        10.7664   -2.2675   21.9640 H         1 SUB1        0.060
     82 H101       11.0764    1.7645   23.3869 H         1 SUB1        0.060
     83 H111        9.7022   -0.2474   22.9303 H         1 SUB1        0.056
     84 H161       19.4758    0.1730   22.4416 H         1 SUB1        0.081
     85 H191       20.9634   -2.1190   21.3441 H         1 SUB1        0.042
     86 H192       19.3580   -2.5816   22.0040 H         1 SUB1        0.042
     87 H201       21.1281   -2.2996   24.0629 H         1 SUB1        0.102
     88 H231       21.8513    2.3372   19.5579 H         1 SUB1        0.082
     89 H261       20.4179    1.3985   16.9996 H         1 SUB1        0.042
     90 H262       21.8542    0.5513   17.6673 H         1 SUB1        0.042
     91 H291       24.2959    2.0470   17.7062 H         1 SUB1        0.073
     92 H301       22.7747    5.4046   15.6369 H         1 SUB1        0.120
     93 H351       18.4919    5.2792   19.7635 H         1 SUB1        0.080
     94 H381       19.5212    7.2761   20.1444 H         1 SUB1        0.031
     95 H382       20.2378    7.3174   18.4978 H         1 SUB1        0.031
     96 H391       22.2024    6.8929   19.6440 H         1 SUB1        0.029
     97 H392       21.3450    6.1739   21.0492 H         1 SUB1        0.029
     98 H401       22.1841    4.9130   18.4542 H         1 SUB1        0.052
     99 H402       22.1114    4.2109   20.1060 H         1 SUB1        0.052
    100 H421       18.5820    6.4791   15.0462 H         1 SUB1        0.080
    101 H451       19.5596    3.6850   14.3431 H         1 SUB1        0.034
    102 H452       20.5682    5.1712   14.3618 H         1 SUB1        0.034
    103 H461       18.8078    6.1374   12.7287 H         1 SUB1        0.050
    104 H462       18.2734    4.4351   12.5214 H         1 SUB1        0.050
    105 H541       14.9290    4.1700   15.0462 H         1 SUB1        0.083
    106 H571       14.3240    1.8069   14.0748 H         1 SUB1        0.055
    107 H572       16.0987    1.6446   13.8500 H         1 SUB1        0.055
    108 H651       12.1518    3.4723   17.6904 H         1 SUB1        0.083
    109 H681       11.7845    2.0011   15.5418 H         1 SUB1        0.064
    110 H701       11.3382   -0.4923   16.5848 H         1 SUB1        0.026
    111 H702       12.8633   -0.0406   17.4195 H         1 SUB1        0.026
    112 H703       12.7843   -0.0295   15.6250 H         1 SUB1        0.026
@<TRIPOS>BOND
     1    2    1 1  
     2    2    5 1  
     3    2    3 1  
     4    3    4 2  
     5    5    6 1  
     6    6    7 ar 
     7    6    8 ar 
     8    8   10 ar 
     9   10   11 ar 
    10   11    9 ar 
    11    9    7 ar 
    12    1   12 1  
    13    1   13 1  
    14    1   14 1  
    15   16   15 1  
    16   16   19 1  
    17   16   17 1  
    18   17   18 2  
    19   19   20 1  
    20   15   21 1  
    21    3   15 am 
    22   23   22 1  
    23   23   26 1  
    24   23   24 1  
    25   24   25 2  
    26   26   27 1  
    27   27   28 1  
    28   27   29 2  
    29   29   31 1  
    30   31   30 1  
    31   30   28 2  
    32   22   32 1  
    33   31   33 1  
    34   17   22 am 
    35   35   36 1  
    36   35   38 1  
    37   35   34 1  
    38   34   40 1  
    39   40   39 1  
    40   39   38 1  
    41   36   37 2  
    42   24   34 am 
    43   42   41 1  
    44   42   45 1  
    45   42   43 1  
    46   43   44 2  
    47   45   46 1  
    48   46   47 1  
    49   47   49 am 
    50   47   48 2  
    51   41   50 1  
    52   49   51 1  
    53   49   52 1  
    54   36   41 am 
    55   54   53 1  
    56   54   57 1  
    57   54   55 1  
    58   55   56 2  
    59   57   58 1  
    60   58   60 am 
    61   58   59 2  
    62   53   61 1  
    63   60   62 1  
    64   60   63 1  
    65   43   53 am 
    66   65   64 1  
    67   65   68 1  
    68   65   66 1  
    69   66   67 2  
    70   68   70 1  
    71   68   69 1  
    72   64   71 1  
    73   69   72 1  
    74   55   64 am 
    75   66   73 am 
    76   73   74 1  
    77   73   75 1  
    78    2   76 1  
    79    5   77 1  
    80    5   78 1  
    81    7   79 1  
    82    8   80 1  
    83    9   81 1  
    84   10   82 1  
    85   11   83 1  
    86   16   84 1  
    87   19   85 1  
    88   19   86 1  
    89   20   87 1  
    90   23   88 1  
    91   26   89 1  
    92   26   90 1  
    93   29   91 1  
    94   30   92 1  
    95   35   93 1  
    96   38   94 1  
    97   38   95 1  
    98   39   96 1  
    99   39   97 1  
   100   40   98 1  
   101   40   99 1  
   102   42  100 1  
   103   45  101 1  
   104   45  102 1  
   105   46  103 1  
   106   46  104 1  
   107   54  105 1  
   108   57  106 1  
   109   57  107 1  
   110   65  108 1  
   111   68  109 1  
   112   70  110 1  
   113   70  111 1  
   114   70  112 1  
@<TRIPOS>SUBSTRUCTURE
     1 SUB1        1 GROUP

