1sts_ligand
  -I-interpret- 

112114  0  0  0  0  0  0  0  0999 V2000
   15.4120   -2.5770   21.1650 N   0  3  0  0  0
   15.7730   -1.1840   20.9680 C   0  0  0  0  0
   17.1860   -1.1900   21.5450 C   0  0  0  0  0
   17.3380   -1.9530   22.4970 O   0  0  0  0  0
   15.0060   -0.1770   21.8490 C   0  0  0  0  0
   13.5060   -0.2560   22.1240 C   0  0  0  0  0
   12.7320   -1.3930   21.8690 C   0  0  0  0  0
   12.9030    0.8790   22.6730 C   0  0  0  0  0
   11.3640   -1.3850   22.1620 C   0  0  0  0  0
   11.5370    0.8800   22.9620 C   0  0  0  0  0
   10.7630   -0.2500   22.7070 C   0  0  0  0  0
   15.5950   -2.7090   22.1880 H   0  0  0  0  0
   14.4360   -2.7860   20.8990 H   0  0  0  0  0
   16.0890   -3.1850   20.6680 H   0  0  0  0  0
   18.2050   -0.5270   20.9890 N   0  0  0  0  0
   19.5640   -0.4610   21.5470 C   0  0  0  0  0
   20.6430    0.1660   20.6640 C   0  0  0  0  0
   21.8170   -0.2120   20.5850 O   0  0  0  0  0
   20.1360   -1.8040   21.9970 C   0  0  0  0  0
   20.7260   -1.4620   23.6720 S   0  0  0  0  0
   18.0190    0.0170   20.1940 H   0  0  0  0  0
   20.1630    1.1340   19.9130 N   0  0  0  0  0
   20.9400    1.9930   19.0470 C   0  0  0  0  0
   19.8790    3.0810   18.8990 C   0  0  0  0  0
   18.6960    2.7630   18.6790 O   0  0  0  0  0
   21.3250    1.5140   17.6110 C   0  0  0  0  0
   22.2580    2.5970   16.9780 C   0  0  0  0  0
   21.7630    3.6490   16.3250 N   0  0  0  0  0
   23.6200    2.7390   17.2060 C   0  0  0  0  0
   22.8080    4.4430   16.1470 C   0  0  0  0  0
   23.8990    3.9080   16.6740 N   0  0  0  0  0
   19.2080    1.3520   19.9910 H   0  0  0  0  0
   24.7820    4.3570   16.6640 H   0  0  0  0  0
   20.2260    4.3630   19.1110 N   0  0  0  0  0
   19.2780    5.4490   19.0130 C   0  0  0  0  0
   18.5750    5.6420   17.6760 C   0  0  0  0  0
   17.5010    6.2460   17.6490 O   0  0  0  0  0
   20.0680    6.6940   19.3880 C   0  0  0  0  0
   21.3890    6.2190   19.9510 C   0  0  0  0  0
   21.5970    4.8610   19.3830 C   0  0  0  0  0
   19.1800    5.1970   16.5620 N   0  0  0  0  0
   18.6230    5.3950   15.2280 C   0  0  0  0  0
   17.2180    4.8570   15.0490 C   0  0  0  0  0
   16.3680    5.6160   14.5650 O   0  0  0  0  0
   19.5540    4.7760   14.2030 C   0  0  0  0  0
   19.1250    5.0850   12.7710 C   0  0  0  0  0
   20.2050    4.8740   11.7200 C   0  0  0  0  0
   21.3660    5.1360   11.9980 O   0  0  0  0  0
   19.9320    4.4070   10.5190 N   0  0  0  0  0
   19.9990    4.6630   16.6420 H   0  0  0  0  0
   20.6830    4.2660    9.9190 H   0  0  0  0  0
   19.0070    4.2200   10.2790 H   0  0  0  0  0
   16.8830    3.6080   15.3820 N   0  0  0  0  0
   15.5030    3.2400   15.1710 C   0  0  0  0  0
   14.9680    2.4980   16.3310 C   0  0  0  0  0
   15.6630    1.7490   17.0100 O   0  0  0  0  0
   15.2660    2.3580   13.9370 C   0  0  0  0  0
   15.1760    3.1570   12.6500 C   0  0  0  0  0
   14.3070    4.0140   12.4070 O   0  0  0  0  0
   16.1310    2.8830   11.7880 N   0  0  0  0  0
   17.4490    3.0240   15.9290 H   0  0  0  0  0
   16.0820    3.3120   10.9110 H   0  0  0  0  0
   16.8460    2.2710   12.0440 H   0  0  0  0  0
   13.7280    2.9520   16.4870 N   0  0  0  0  0
   12.7100    2.5560   17.4480 C   0  0  0  0  0
   13.0550    1.9640   18.8200 C   0  0  0  0  0
   14.1590    2.0670   19.3630 O   0  0  0  0  0
   11.7690    1.6350   16.5790 C   0  0  0  0  0
   10.4470    1.7990   17.0990 O   0  0  0  0  0
   12.2210    0.1630   16.5500 C   0  0  0  0  0
   13.4370    3.6570   15.8680 H   0  0  0  0  0
   10.2148    2.7357   17.0949 H   0  0  0  0  0
   12.0380    1.3770   19.4400 N   0  0  0  0  0
   11.1710    1.3720   18.9660 H   0  0  0  0  0
   12.1550    1.0030   20.3270 H   0  0  0  0  0
   15.7227   -0.8963   19.9075 H   0  0  0  0  0
   15.1742    0.8090   21.3913 H   0  0  0  0  0
   15.4926   -0.2114   22.8349 H   0  0  0  0  0
   13.1913   -2.2787   21.4451 H   0  0  0  0  0
   13.4982    1.7621   22.8753 H   0  0  0  0  0
   10.7664   -2.2675   21.9640 H   0  0  0  0  0
   11.0764    1.7645   23.3869 H   0  0  0  0  0
    9.7022   -0.2474   22.9303 H   0  0  0  0  0
   19.4758    0.1730   22.4416 H   0  0  0  0  0
   20.9634   -2.1190   21.3441 H   0  0  0  0  0
   19.3580   -2.5816   22.0040 H   0  0  0  0  0
   21.1281   -2.2996   24.0629 H   0  0  0  0  0
   21.8513    2.3372   19.5579 H   0  0  0  0  0
   20.4179    1.3985   16.9996 H   0  0  0  0  0
   21.8542    0.5513   17.6673 H   0  0  0  0  0
   24.2959    2.0470   17.7062 H   0  0  0  0  0
   22.7747    5.4046   15.6369 H   0  0  0  0  0
   18.4919    5.2792   19.7635 H   0  0  0  0  0
   19.5212    7.2761   20.1444 H   0  0  0  0  0
   20.2378    7.3174   18.4978 H   0  0  0  0  0
   22.2024    6.8929   19.6440 H   0  0  0  0  0
   21.3450    6.1739   21.0492 H   0  0  0  0  0
   22.1841    4.9130   18.4542 H   0  0  0  0  0
   22.1114    4.2109   20.1060 H   0  0  0  0  0
   18.5820    6.4791   15.0462 H   0  0  0  0  0
   19.5596    3.6850   14.3431 H   0  0  0  0  0
   20.5682    5.1712   14.3618 H   0  0  0  0  0
   18.8078    6.1374   12.7287 H   0  0  0  0  0
   18.2734    4.4351   12.5214 H   0  0  0  0  0
   14.9290    4.1700   15.0462 H   0  0  0  0  0
   14.3240    1.8069   14.0748 H   0  0  0  0  0
   16.0987    1.6446   13.8500 H   0  0  0  0  0
   12.1518    3.4723   17.6904 H   0  0  0  0  0
   11.7845    2.0011   15.5418 H   0  0  0  0  0
   11.3382   -0.4923   16.5848 H   0  0  0  0  0
   12.8633   -0.0406   17.4195 H   0  0  0  0  0
   12.7843   -0.0295   15.6250 H   0  0  0  0  0
  2  1  1  0  0  0
  2  5  1  0  0  0
  2  3  1  0  0  0
  3  4  2  0  0  0
  5  6  1  0  0  0
  6  7  4  0  0  0
  6  8  4  0  0  0
  8 10  4  0  0  0
 10 11  4  0  0  0
 11  9  4  0  0  0
  9  7  4  0  0  0
  1 12  1  0  0  0
  1 13  1  0  0  0
  1 14  1  0  0  0
 16 15  1  0  0  0
 16 19  1  0  0  0
 16 17  1  0  0  0
 17 18  2  0  0  0
 19 20  1  0  0  0
 15 21  1  0  0  0
  3 15  1  0  0  0
 23 22  1  0  0  0
 23 26  1  0  0  0
 23 24  1  0  0  0
 24 25  2  0  0  0
 26 27  1  0  0  0
 27 28  1  0  0  0
 27 29  2  0  0  0
 29 31  1  0  0  0
 31 30  1  0  0  0
 30 28  2  0  0  0
 22 32  1  0  0  0
 31 33  1  0  0  0
 17 22  1  0  0  0
 35 36  1  0  0  0
 35 38  1  0  0  0
 35 34  1  0  0  0
 34 40  1  0  0  0
 40 39  1  0  0  0
 39 38  1  0  0  0
 36 37  2  0  0  0
 24 34  1  0  0  0
 42 41  1  0  0  0
 42 45  1  0  0  0
 42 43  1  0  0  0
 43 44  2  0  0  0
 45 46  1  0  0  0
 46 47  1  0  0  0
 47 49  1  0  0  0
 47 48  2  0  0  0
 41 50  1  0  0  0
 49 51  1  0  0  0
 49 52  1  0  0  0
 36 41  1  0  0  0
 54 53  1  0  0  0
 54 57  1  0  0  0
 54 55  1  0  0  0
 55 56  2  0  0  0
 57 58  1  0  0  0
 58 60  1  0  0  0
 58 59  2  0  0  0
 53 61  1  0  0  0
 60 62  1  0  0  0
 60 63  1  0  0  0
 43 53  1  0  0  0
 65 64  1  0  0  0
 65 68  1  0  0  0
 65 66  1  0  0  0
 66 67  2  0  0  0
 68 70  1  0  0  0
 68 69  1  0  0  0
 64 71  1  0  0  0
 69 72  1  0  0  0
 55 64  1  0  0  0
 66 73  1  0  0  0
 73 74  1  0  0  0
 73 75  1  0  0  0
  2 76  1  0  0  0
  5 77  1  0  0  0
  5 78  1  0  0  0
  7 79  1  0  0  0
  8 80  1  0  0  0
  9 81  1  0  0  0
 10 82  1  0  0  0
 11 83  1  0  0  0
 16 84  1  0  0  0
 19 85  1  0  0  0
 19 86  1  0  0  0
 20 87  1  0  0  0
 23 88  1  0  0  0
 26 89  1  0  0  0
 26 90  1  0  0  0
 29 91  1  0  0  0
 30 92  1  0  0  0
 35 93  1  0  0  0
 38 94  1  0  0  0
 38 95  1  0  0  0
 39 96  1  0  0  0
 39 97  1  0  0  0
 40 98  1  0  0  0
 40 99  1  0  0  0
 42100  1  0  0  0
 45101  1  0  0  0
 45102  1  0  0  0
 46103  1  0  0  0
 46104  1  0  0  0
 54105  1  0  0  0
 57106  1  0  0  0
 57107  1  0  0  0
 65108  1  0  0  0
 68109  1  0  0  0
 70110  1  0  0  0
 70111  1  0  0  0
 70112  1  0  0  0
M  END
$$$$
