### 
### Created by X-TOOL on Sun Jun  3 11:31:52 2007
### 

@<TRIPOS>MOLECULE
2j78_ligand
   25    25     1     0     0
SMALL
GAST_HUCK


@<TRIPOS>ATOM
      1 C1          0.1250   11.4600   10.3170 C.2       1 SUB1        0.132
      2 N1          0.5030   11.3590   11.5760 N.2       1 SUB1       -0.207
      3 C2          1.1740   12.1210    9.4020 C.3       1 SUB1        0.150
      4 N5         -1.1350   10.9800    9.9070 N.pl3     1 SUB1       -0.299
      5 O7         -0.3610   10.7420   12.4840 O.3       1 SUB1       -0.305
      6 O2          1.6700   13.3100    9.9680 O.3       1 SUB1       -0.371
      7 C3          0.5390   12.4040    8.0430 C.3       1 SUB1        0.123
      8 O3          1.6100   12.6700    7.1400 O.3       1 SUB1       -0.384
      9 C4         -0.2660   11.1900    7.5690 C.3       1 SUB1        0.110
     10 O4         -0.6380   11.3320    6.2030 O.3       1 SUB1       -0.387
     11 C5         -1.5140   11.1240    8.4950 C.3       1 SUB1        0.090
     12 C6         -2.4280    9.9260    8.1640 C.3       1 SUB1        0.069
     13 O6         -1.7790    8.6990    8.4330 O.3       1 SUB1       -0.393
     14 H           2.0167   11.4401    9.2823 H         1 SUB1        0.084
     15 H          -1.7693   10.5426   10.5754 H         1 SUB1        0.181
     16 H           0.0413   10.7394   13.3556 H         1 SUB1        0.252
     17 H           2.3195   13.6978    9.3770 H         1 SUB1        0.214
     18 H          -0.1465   13.2496    8.0990 H         1 SUB1        0.067
     19 H           1.2535   12.8543    6.2679 H         1 SUB1        0.210
     20 H           0.3163   10.2705    7.6288 H         1 SUB1        0.065
     21 H           0.1524   11.4095    5.6637 H         1 SUB1        0.210
     22 H          -2.0417   12.0624    8.3244 H         1 SUB1        0.060
     23 H          -2.6790    9.9620    7.1039 H         1 SUB1        0.058
     24 H          -3.3230    9.9895    8.7828 H         1 SUB1        0.058
     25 H          -2.3689    7.9726    8.2186 H         1 SUB1        0.209
@<TRIPOS>BOND
     1    1    2 2  
     2    1    3 1  
     3    1    4 1  
     4    2    5 1  
     5    3    6 1  
     6    3    7 1  
     7    4   11 1  
     8    7    8 1  
     9    7    9 1  
    10    9   10 1  
    11    9   11 1  
    12   11   12 1  
    13   12   13 1  
    14    3   14 1  
    15    4   15 1  
    16    5   16 1  
    17    6   17 1  
    18    7   18 1  
    19    8   19 1  
    20    9   20 1  
    21   10   21 1  
    22   11   22 1  
    23   12   23 1  
    24   12   24 1  
    25   13   25 1  
@<TRIPOS>SUBSTRUCTURE
     1 SUB1        1 GROUP

