2j78_ligand
  -I-interpret- 

 25 25  0  0  0  0  0  0  0  0999 V2000
    0.1250   11.4600   10.3170 C   0  0  0  0  0
    0.5030   11.3590   11.5760 N   0  0  0  0  0
    1.1740   12.1210    9.4020 C   0  0  0  0  0
   -1.1350   10.9800    9.9070 N   0  0  0  0  0
   -0.3610   10.7420   12.4840 O   0  0  0  0  0
    1.6700   13.3100    9.9680 O   0  0  0  0  0
    0.5390   12.4040    8.0430 C   0  0  0  0  0
    1.6100   12.6700    7.1400 O   0  0  0  0  0
   -0.2660   11.1900    7.5690 C   0  0  0  0  0
   -0.6380   11.3320    6.2030 O   0  0  0  0  0
   -1.5140   11.1240    8.4950 C   0  0  0  0  0
   -2.4280    9.9260    8.1640 C   0  0  0  0  0
   -1.7790    8.6990    8.4330 O   0  0  0  0  0
    2.0167   11.4401    9.2823 H   0  0  0  0  0
   -1.7693   10.5426   10.5754 H   0  0  0  0  0
    0.0413   10.7394   13.3556 H   0  0  0  0  0
    2.3195   13.6978    9.3770 H   0  0  0  0  0
   -0.1465   13.2496    8.0990 H   0  0  0  0  0
    1.2535   12.8543    6.2679 H   0  0  0  0  0
    0.3163   10.2705    7.6288 H   0  0  0  0  0
    0.1524   11.4095    5.6637 H   0  0  0  0  0
   -2.0417   12.0624    8.3244 H   0  0  0  0  0
   -2.6790    9.9620    7.1039 H   0  0  0  0  0
   -3.3230    9.9895    8.7828 H   0  0  0  0  0
   -2.3689    7.9726    8.2186 H   0  0  0  0  0
  1  2  2  0  0  0
  1  3  1  0  0  0
  1  4  1  0  0  0
  2  5  1  0  0  0
  3  6  1  0  0  0
  3  7  1  0  0  0
  4 11  1  0  0  0
  7  8  1  0  0  0
  7  9  1  0  0  0
  9 10  1  0  0  0
  9 11  1  0  0  0
 11 12  1  0  0  0
 12 13  1  0  0  0
  3 14  1  0  0  0
  4 15  1  0  0  0
  5 16  1  0  0  0
  6 17  1  0  0  0
  7 18  1  0  0  0
  8 19  1  0  0  0
  9 20  1  0  0  0
 10 21  1  0  0  0
 11 22  1  0  0  0
 12 23  1  0  0  0
 12 24  1  0  0  0
 13 25  1  0  0  0
M  END
$$$$
