### 
### Created by X-TOOL on Tue Oct 25 01:39:17 2005
### 

@<TRIPOS>MOLECULE
1rej_ligand
   49    51     1     0     0
SMALL
GAST_HUCK


@<TRIPOS>ATOM
      1 O1         16.9020   39.1290   19.4210 O.3       1 SUB1       -0.330
      2 C1         15.6260   39.4820   19.2210 C.ar      1 SUB1        0.093
      3 C2         15.2800   40.8300   19.0950 C.ar      1 SUB1       -0.027
      4 C3         13.9470   41.1980   18.8910 C.ar      1 SUB1       -0.050
      5 C4         12.9590   40.2120   18.8100 C.ar      1 SUB1        0.038
      6 C5         13.3010   38.8640   18.9310 C.ar      1 SUB1       -0.050
      7 C6         14.6340   38.5000   19.1430 C.ar      1 SUB1       -0.027
      8 C7         11.6330   40.5750   18.6060 C.2       1 SUB1        0.197
      9 O7         11.3220   41.7800   18.4860 O.2       1 SUB1       -0.390
     10 N8         10.6710   39.6300   18.5350 N.am      1 SUB1       -0.281
     11 C8          9.2740   39.9710   18.7520 C.3       1 SUB1        0.084
     12 C9          8.4700   39.6660   17.4790 C.3       1 SUB1        0.110
     13 C10         6.9560   39.6620   17.7350 C.3       1 SUB1       -0.019
     14 C11         6.5410   38.4710   18.5840 C.3       1 SUB1       -0.038
     15 C12         6.3870   38.9240   20.0260 C.3       1 SUB1       -0.004
     16 N13         7.5010   39.7750   20.4130 N.3       1 SUB1       -0.314
     17 C14         8.7570   39.2010   19.9620 C.3       1 SUB1        0.022
     18 O9          8.7600   40.6800   16.5230 O.3       1 SUB1       -0.273
     19 C15         8.1770   40.3930   15.2660 C.2       1 SUB1        0.255
     20 O15         8.3170   39.2670   14.7700 O.2       1 SUB1       -0.362
     21 C16         7.4700   41.3770   14.5890 C.ar      1 SUB1        0.051
     22 C17         6.6430   42.2620   15.2960 C.ar      1 SUB1       -0.049
     23 C18         5.9290   43.2540   14.6040 C.ar      1 SUB1       -0.027
     24 C19         6.0590   43.3760   13.2190 C.ar      1 SUB1        0.093
     25 C20         6.8880   42.4920   12.5160 C.ar      1 SUB1       -0.027
     26 C21         7.6010   41.5040   13.2060 C.ar      1 SUB1       -0.049
     27 O19         5.3820   44.3220   12.5500 O.3       1 SUB1       -0.329
     28 H11        16.9616   38.1830   19.4836 H         1 SUB1        0.250
     29 H31        16.0478   41.5928   19.1557 H         1 SUB1        0.056
     30 H41        13.6802   42.2443   18.7959 H         1 SUB1        0.064
     31 H61        12.5343   38.1009   18.8607 H         1 SUB1        0.064
     32 H71        14.8990   37.4541   19.2471 H         1 SUB1        0.056
     33 H101       10.9223   38.6839   18.3307 H         1 SUB1        0.185
     34 H111        9.1951   41.0476   18.9635 H         1 SUB1        0.060
     35 H121        8.7717   38.6833   17.0876 H         1 SUB1        0.067
     36 H131        6.4298   39.6146   16.7702 H         1 SUB1        0.030
     37 H132        6.6789   40.5888   18.2586 H         1 SUB1        0.030
     38 H141        7.3112   37.6880   18.5233 H         1 SUB1        0.028
     39 H142        5.5833   38.0725   18.2180 H         1 SUB1        0.028
     40 H151        6.3605   38.0415   20.6821 H         1 SUB1        0.042
     41 H152        5.4478   39.4870   20.1305 H         1 SUB1        0.042
     42 H161        7.5192   39.8703   21.4886 H         1 SUB1        0.122
     43 H171        9.4967   39.2582   20.7741 H         1 SUB1        0.045
     44 H172        8.5982   38.1486   19.6841 H         1 SUB1        0.045
     45 H221        6.5551   42.1806   16.3734 H         1 SUB1        0.064
     46 H231        5.2750   43.9270   15.1467 H         1 SUB1        0.056
     47 H251        6.9774   42.5729   11.4387 H         1 SUB1        0.056
     48 H261        8.2580   40.8345   12.6628 H         1 SUB1        0.064
     49 H271        4.8696   44.8363   13.1628 H         1 SUB1        0.250
@<TRIPOS>BOND
     1    1    2 1  
     2    2    3 ar 
     3    2    7 ar 
     4    3    4 ar 
     5    4    5 ar 
     6    5    6 ar 
     7    5    8 1  
     8    6    7 ar 
     9    8    9 2  
    10    8   10 am 
    11   10   11 1  
    12   11   12 1  
    13   11   17 1  
    14   12   13 1  
    15   12   18 1  
    16   13   14 1  
    17   14   15 1  
    18   15   16 1  
    19   16   17 1  
    20   18   19 1  
    21   19   20 2  
    22   19   21 1  
    23   21   22 ar 
    24   21   26 ar 
    25   22   23 ar 
    26   23   24 ar 
    27   24   25 ar 
    28   24   27 1  
    29   25   26 ar 
    30    1   28 1  
    31    3   29 1  
    32    4   30 1  
    33    6   31 1  
    34    7   32 1  
    35   10   33 1  
    36   11   34 1  
    37   12   35 1  
    38   13   36 1  
    39   13   37 1  
    40   14   38 1  
    41   14   39 1  
    42   15   40 1  
    43   15   41 1  
    44   16   42 1  
    45   17   43 1  
    46   17   44 1  
    47   22   45 1  
    48   23   46 1  
    49   25   47 1  
    50   26   48 1  
    51   27   49 1  
@<TRIPOS>SUBSTRUCTURE
     1 SUB1        1 GROUP

