### 
### Created by X-TOOL on Tue Oct 25 02:20:26 2005
### 

@<TRIPOS>MOLECULE
1m0o_ligand
   40    40     1     0     0
SMALL
GAST_HUCK


@<TRIPOS>ATOM
      1 C4         17.2890   52.3380   16.5490 C.ar      1 SUB1        0.060
      2 C3         16.2880   53.2470   16.0950 C.ar      1 SUB1        0.134
      3 C5         18.3640   52.0000   15.6390 C.ar      1 SUB1        0.019
      4 C4A        17.2920   51.7180   17.9640 C.2       1 SUB1        0.018
      5 C2         16.4010   53.7860   14.7820 C.ar      1 SUB1        0.057
      6 C6         18.4330   52.5750   14.3780 C.ar      1 SUB1        0.003
      7 O1         15.2290   53.6110   16.8980 O.3       1 SUB1       -0.322
      8 C5A        19.3300   51.0640   16.1030 C.3       1 SUB1        0.105
      9 N2         16.3730   52.1820   18.7540 N.2       1 SUB1       -0.328
     10 N1         17.4550   53.4490   13.9930 N.ar      1 SUB1       -0.308
     11 C2A        15.3700   54.7740   14.2590 C.3       1 SUB1       -0.019
     12 O2         19.2150   49.7090   16.0170 O.3       1 SUB1       -0.307
     13 C          16.1530   51.7980   20.1730 C.3       1 SUB1        0.070
     14 P1         20.1330   48.7420   16.7460 P.3       1 SUB1        0.207
     15 CA2        16.7820   52.9600   20.9970 C.3       1 SUB1       -0.034
     16 CA1        16.9600   50.5120   20.6860 C.3       1 SUB1       -0.043
     17 P2         14.4980   51.6870   20.4540 P.3       1 SUB1        0.080
     18 O3         19.6780   47.3930   16.4710 O.co2     1 SUB1       -0.535
     19 O5         20.0630   49.0500   18.1590 O.co2     1 SUB1       -0.535
     20 O4         21.4580   48.7980   16.2110 O.co2     1 SUB1       -0.535
     21 O8         14.0230   50.3910   19.9210 O.co2     1 SUB1       -0.542
     22 O6         14.2010   51.7140   21.8970 O.co2     1 SUB1       -0.542
     23 O7         13.7520   52.7930   19.7790 O.co2     1 SUB1       -0.542
     24 CA3        16.1600   54.3150   20.6450 C.3       1 SUB1       -0.064
     25 H41        18.0056   50.9554   18.2726 H         1 SUB1        0.108
     26 H61        19.2505   52.3346   13.7080 H         1 SUB1        0.066
     27 H71        15.5588   54.0268   17.6860 H         1 SUB1        0.253
     28 H81        19.4546   51.2793   17.1745 H         1 SUB1        0.080
     29 H82        20.2586   51.3130   15.5685 H         1 SUB1        0.080
     30 H111       15.6332   55.0697   13.2327 H         1 SUB1        0.039
     31 H112       15.3549   55.6645   14.9046 H         1 SUB1        0.039
     32 H113       14.3762   54.3025   14.2613 H         1 SUB1        0.039
     33 H151       17.8613   52.9997   20.7884 H         1 SUB1        0.028
     34 H152       16.6224   52.7633   22.0674 H         1 SUB1        0.028
     35 H161       18.0316   50.6434   20.4752 H         1 SUB1        0.025
     36 H162       16.5912   49.6159   20.1655 H         1 SUB1        0.025
     37 H163       16.8113   50.3939   21.7695 H         1 SUB1        0.025
     38 H241       16.6330   55.1035   21.2488 H         1 SUB1        0.023
     39 H242       15.0808   54.2891   20.8563 H         1 SUB1        0.023
     40 H243       16.3197   54.5255   19.5772 H         1 SUB1        0.023
@<TRIPOS>BOND
     1    1    4 1  
     2    1    3 ar 
     3    1    2 ar 
     4    2    7 1  
     5    2    5 ar 
     6    5   11 1  
     7    5   10 ar 
     8   10    6 ar 
     9    6    3 ar 
    10    3    8 1  
    11    8   12 1  
    12   12   14 1  
    13   14   20 2  
    14   14   19 2  
    15   14   18 2  
    16    4    9 2  
    17    9   13 1  
    18   13   17 1  
    19   13   16 1  
    20   13   15 1  
    21   15   24 1  
    22   17   23 2  
    23   17   22 2  
    24   17   21 2  
    25    4   25 1  
    26    6   26 1  
    27    7   27 1  
    28    8   28 1  
    29    8   29 1  
    30   11   30 1  
    31   11   31 1  
    32   11   32 1  
    33   15   33 1  
    34   15   34 1  
    35   16   35 1  
    36   16   36 1  
    37   16   37 1  
    38   24   38 1  
    39   24   39 1  
    40   24   40 1  
@<TRIPOS>SUBSTRUCTURE
     1 SUB1        1 GROUP

