### 
### Created by X-TOOL on Mon Oct 24 22:00:24 2005
### 

@<TRIPOS>MOLECULE
1gj7_ligand
   43    46     1     0     0
SMALL
GAST_HUCK


@<TRIPOS>ATOM
      1 H201        9.3239    1.7180   21.8949 H         1 SUB1        0.055
      2 H231        8.7845    1.5659   26.8390 H         1 SUB1        0.058
      3 H251        7.2696   -1.6629   27.2123 H         1 SUB1        0.192
      4 H252        7.2184    0.1194   27.1539 H         1 SUB1        0.192
      5 H261        9.1666   -1.9179   24.2404 H         1 SUB1        0.192
      6 H262        8.3634   -2.8140   25.5575 H         1 SUB1        0.192
      7 H271       10.0485    4.3001   22.4700 H         1 SUB1        0.223
      8 H281        9.5568    4.2977   26.6398 H         1 SUB1        0.030
      9 H311        9.6270    6.4987   26.5213 H         1 SUB1        0.059
     10 H321       10.1826    8.9066   26.5491 H         1 SUB1        0.053
     11 H331       11.0535   10.0109   24.5353 H         1 SUB1        0.059
     12 H361       11.2119    6.7179   21.4541 H         1 SUB1        0.252
     13 H381       13.1792    7.4837   21.9799 H         1 SUB1        0.061
     14 H391       14.3048    8.7438   20.1953 H         1 SUB1        0.061
     15 H401       13.4027   10.9226   19.4575 H         1 SUB1        0.060
     16 H411       11.3316   11.8048   20.4660 H         1 SUB1        0.061
     17 H421       10.1948   10.5438   22.2712 H         1 SUB1        0.061
     18 C1          8.5780    0.4240   24.9970 C.ar      1 SUB1        0.183
     19 C2          8.7520    0.4970   23.5850 C.ar      1 SUB1        0.079
     20 C3          9.1610    1.6830   22.9660 C.ar      1 SUB1       -0.025
     21 C4          9.3540    2.8100   23.7440 C.ar      1 SUB1        0.063
     22 C5          9.2490    2.7450   25.0950 C.ar      1 SUB1       -0.022
     23 C6          8.8640    1.5830   25.7580 C.ar      1 SUB1       -0.020
     24 C7          8.2280   -0.7940   25.6410 C.cat     1 SUB1        0.310
     25 N1          7.5210   -0.7780   26.7490 N.pl3     1 SUB1       -0.201
     26 N2          8.6130   -1.9210   25.1090 N.pl3     1 SUB1       -0.201
     27 N3          9.7930    4.0110   23.4250 N.pl3     1 SUB1       -0.276
     28 C9          9.5550    3.9940   25.5940 C.2       1 SUB1       -0.057
     29 C8          9.8640    4.7960   24.4820 C.2       1 SUB1        0.061
     30 C1'        10.2150    6.1850   24.4680 C.ar      1 SUB1        0.038
     31 C2'        10.0220    6.9650   25.6260 C.ar      1 SUB1       -0.059
     32 C3'        10.3310    8.3320   25.6420 C.ar      1 SUB1       -0.071
     33 C4'        10.8230    8.9520   24.5110 C.ar      1 SUB1       -0.062
     34 C5'        11.0270    8.2220   23.3300 C.ar      1 SUB1        0.015
     35 C6'        10.7080    6.8370   23.3020 C.ar      1 SUB1        0.112
     36 O6'        10.8780    6.1340   22.1250 O.3       1 SUB1       -0.327
     37 C1'        11.6130    8.9280   22.2610 C.ar      1 SUB1       -0.022
     38 C2'        12.7720    8.4350   21.6570 C.ar      1 SUB1       -0.057
     39 C3'        13.4070    9.1420   20.6540 C.ar      1 SUB1       -0.063
     40 C4'        12.8960   10.3610   20.2340 C.ar      1 SUB1       -0.064
     41 C5'        11.7400   10.8600   20.8060 C.ar      1 SUB1       -0.063
     42 C6'        11.0980   10.1470   21.8220 C.ar      1 SUB1       -0.057
     43 CL2         8.3610   -0.8350   22.4740 Cl        1 SUB1       -0.075
@<TRIPOS>BOND
     1   20    1 1  
     2   23    2 1  
     3   25    3 1  
     4   25    4 1  
     5   26    5 1  
     6   26    6 1  
     7   27    7 1  
     8   28    8 1  
     9   31    9 1  
    10   32   10 1  
    11   33   11 1  
    12   36   12 1  
    13   38   13 1  
    14   39   14 1  
    15   40   15 1  
    16   41   16 1  
    17   42   17 1  
    18   24   18 1  
    19   18   23 ar 
    20   18   19 ar 
    21   19   20 ar 
    22   19   43 1  
    23   20   21 ar 
    24   21   27 1  
    25   22   21 ar 
    26   22   28 1  
    27   23   22 ar 
    28   28   29 2  
    29   29   30 1  
    30   27   29 1  
    31   30   35 ar 
    32   30   31 ar 
    33   35   36 1  
    34   35   34 ar 
    35   34   37 1  
    36   34   33 ar 
    37   33   32 ar 
    38   37   42 ar 
    39   37   38 ar 
    40   38   39 ar 
    41   39   40 ar 
    42   41   40 ar 
    43   42   41 ar 
    44   24   26 1  
    45   24   25 1  
    46   31   32 ar 
@<TRIPOS>SUBSTRUCTURE
     1 SUB1        1 GROUP

