1gj7_ligand
  -I-interpret- 

 43 46  0  0  0  0  0  0  0  0999 V2000
    9.3239    1.7180   21.8949 H   0  0  0  0  0
    8.7845    1.5659   26.8390 H   0  0  0  0  0
    7.2696   -1.6629   27.2123 H   0  0  0  0  0
    7.2184    0.1194   27.1539 H   0  0  0  0  0
    9.1666   -1.9179   24.2404 H   0  0  0  0  0
    8.3634   -2.8140   25.5575 H   0  0  0  0  0
   10.0485    4.3001   22.4700 H   0  0  0  0  0
    9.5568    4.2977   26.6398 H   0  0  0  0  0
    9.6270    6.4987   26.5213 H   0  0  0  0  0
   10.1826    8.9066   26.5491 H   0  0  0  0  0
   11.0535   10.0109   24.5353 H   0  0  0  0  0
   11.2119    6.7179   21.4541 H   0  0  0  0  0
   13.1792    7.4837   21.9799 H   0  0  0  0  0
   14.3048    8.7438   20.1953 H   0  0  0  0  0
   13.4027   10.9226   19.4575 H   0  0  0  0  0
   11.3316   11.8048   20.4660 H   0  0  0  0  0
   10.1948   10.5438   22.2712 H   0  0  0  0  0
    8.5780    0.4240   24.9970 C   0  0  0  0  0
    8.7520    0.4970   23.5850 C   0  0  0  0  0
    9.1610    1.6830   22.9660 C   0  0  0  0  0
    9.3540    2.8100   23.7440 C   0  0  0  0  0
    9.2490    2.7450   25.0950 C   0  0  0  0  0
    8.8640    1.5830   25.7580 C   0  0  0  0  0
    8.2280   -0.7940   25.6410 C   0  3  0  0  0
    7.5210   -0.7780   26.7490 N   0  0  0  0  0
    8.6130   -1.9210   25.1090 N   0  0  0  0  0
    9.7930    4.0110   23.4250 N   0  0  0  0  0
    9.5550    3.9940   25.5940 C   0  0  0  0  0
    9.8640    4.7960   24.4820 C   0  0  0  0  0
   10.2150    6.1850   24.4680 C   0  0  0  0  0
   10.0220    6.9650   25.6260 C   0  0  0  0  0
   10.3310    8.3320   25.6420 C   0  0  0  0  0
   10.8230    8.9520   24.5110 C   0  0  0  0  0
   11.0270    8.2220   23.3300 C   0  0  0  0  0
   10.7080    6.8370   23.3020 C   0  0  0  0  0
   10.8780    6.1340   22.1250 O   0  0  0  0  0
   11.6130    8.9280   22.2610 C   0  0  0  0  0
   12.7720    8.4350   21.6570 C   0  0  0  0  0
   13.4070    9.1420   20.6540 C   0  0  0  0  0
   12.8960   10.3610   20.2340 C   0  0  0  0  0
   11.7400   10.8600   20.8060 C   0  0  0  0  0
   11.0980   10.1470   21.8220 C   0  0  0  0  0
    8.3610   -0.8350   22.4740 Cl  0  0  0  0  0
 20  1  1  0  0  0
 23  2  1  0  0  0
 25  3  1  0  0  0
 25  4  1  0  0  0
 26  5  1  0  0  0
 26  6  1  0  0  0
 27  7  1  0  0  0
 28  8  1  0  0  0
 31  9  1  0  0  0
 32 10  1  0  0  0
 33 11  1  0  0  0
 36 12  1  0  0  0
 38 13  1  0  0  0
 39 14  1  0  0  0
 40 15  1  0  0  0
 41 16  1  0  0  0
 42 17  1  0  0  0
 24 18  1  0  0  0
 18 23  4  0  0  0
 18 19  4  0  0  0
 19 20  4  0  0  0
 19 43  1  0  0  0
 20 21  4  0  0  0
 21 27  1  0  0  0
 22 21  4  0  0  0
 22 28  1  0  0  0
 23 22  4  0  0  0
 28 29  2  0  0  0
 29 30  1  0  0  0
 27 29  1  0  0  0
 30 35  4  0  0  0
 30 31  4  0  0  0
 35 36  1  0  0  0
 35 34  4  0  0  0
 34 37  1  0  0  0
 34 33  4  0  0  0
 33 32  4  0  0  0
 37 42  4  0  0  0
 37 38  4  0  0  0
 38 39  4  0  0  0
 39 40  4  0  0  0
 41 40  4  0  0  0
 42 41  4  0  0  0
 24 26  1  0  0  0
 24 25  1  0  0  0
 31 32  4  0  0  0
M  END
$$$$
