### 
### Created by X-TOOL on Sun Jun  3 12:44:47 2007
### 

@<TRIPOS>MOLECULE
2i0g_ligand
   39    42     1     0     0
SMALL
GAST_HUCK


@<TRIPOS>ATOM
      1 C4         77.0370   39.8630   67.5790 C.3       1 SUB1       -0.004
      2 C6         77.8800   40.8900   68.3520 C.ar      1 SUB1       -0.018
      3 C7         78.7870   41.7320   67.6420 C.ar      1 SUB1       -0.040
      4 C8         79.5730   42.6830   68.3470 C.ar      1 SUB1        0.070
      5 C10        79.4570   42.7880   69.7490 C.ar      1 SUB1       -0.049
      6 C17        75.6740   38.5710   72.3300 C.ar      1 SUB1       -0.066
      7 C21        74.1550   36.3510   71.4500 C.ar      1 SUB1       -0.040
      8 C22        74.9640   37.0520   70.5380 C.ar      1 SUB1       -0.066
      9 C24        74.7270   40.6460   67.1340 C.3       1 SUB1       -0.051
     10 C1         74.7290   39.8970   68.4920 C.3       1 SUB1       -0.044
     11 C2         76.0490   39.0640   68.5110 C.3       1 SUB1        0.008
     12 O9         80.4400   43.4980   67.6880 O.3       1 SUB1       -0.342
     13 C11        78.5650   41.9630   70.4420 C.ar      1 SUB1       -0.048
     14 C12        77.7740   41.0120   69.7530 C.ar      1 SUB1        0.084
     15 O13        76.9200   40.2500   70.5140 O.3       1 SUB1       -0.315
     16 C14        76.6420   38.9490   69.9620 C.3       1 SUB1        0.111
     17 C16        75.7340   38.1700   70.9620 C.ar      1 SUB1       -0.021
     18 C18        74.8620   37.8620   73.2410 C.ar      1 SUB1       -0.040
     19 C19        74.1020   36.7480   72.7960 C.ar      1 SUB1        0.080
     20 O20        73.3320   36.0650   73.6600 O.3       1 SUB1       -0.338
     21 C23        76.1430   40.5400   66.5290 C.3       1 SUB1       -0.042
     22 H          77.7691   39.1960   67.1237 H         1 SUB1        0.044
     23 H          78.8770   41.6458   66.5591 H         1 SUB1        0.045
     24 H          80.0630   43.5127   70.2927 H         1 SUB1        0.046
     25 H          76.2564   39.4265   72.6721 H         1 SUB1        0.053
     26 H          73.5677   35.4975   71.1114 H         1 SUB1        0.052
     27 H          75.0013   36.7353   69.4957 H         1 SUB1        0.053
     28 H          74.4576   41.6919   67.2811 H         1 SUB1        0.027
     29 H          73.9950   40.2014   66.4597 H         1 SUB1        0.027
     30 H          73.8528   39.2569   68.5949 H         1 SUB1        0.027
     31 H          74.6849   40.5923   69.3303 H         1 SUB1        0.027
     32 H          75.8813   38.0413   68.1732 H         1 SUB1        0.037
     33 H          80.4048   43.3074   66.7478 H         1 SUB1        0.244
     34 H          78.4778   42.0532   71.5248 H         1 SUB1        0.050
     35 H          77.5618   38.3769   69.8404 H         1 SUB1        0.079
     36 H          74.8183   38.1694   74.2858 H         1 SUB1        0.052
     37 H          72.8909   35.3490   73.1969 H         1 SUB1        0.246
     38 H          76.1240   39.9571   65.6082 H         1 SUB1        0.029
     39 H          76.5277   41.5284   66.2776 H         1 SUB1        0.029
@<TRIPOS>BOND
     1    1    2 1  
     2   11    1 1  
     3    1   21 1  
     4    2    3 ar 
     5   14    2 ar 
     6    3    4 ar 
     7    5    4 ar 
     8    4   12 1  
     9   13    5 ar 
    10   17    6 ar 
    11    6   18 ar 
    12    8    7 ar 
    13    7   19 ar 
    14   17    8 ar 
    15   10    9 1  
    16    9   21 1  
    17   11   10 1  
    18   16   11 1  
    19   14   13 ar 
    20   15   14 1  
    21   16   15 1  
    22   16   17 1  
    23   18   19 ar 
    24   19   20 1  
    25    1   22 1  
    26    3   23 1  
    27    5   24 1  
    28    6   25 1  
    29    7   26 1  
    30    8   27 1  
    31    9   28 1  
    32    9   29 1  
    33   10   30 1  
    34   10   31 1  
    35   11   32 1  
    36   12   33 1  
    37   13   34 1  
    38   16   35 1  
    39   18   36 1  
    40   20   37 1  
    41   21   38 1  
    42   21   39 1  
@<TRIPOS>SUBSTRUCTURE
     1 SUB1        1 GROUP

