### 
### Created by X-TOOL on Mon Oct 24 21:59:08 2005
### 

@<TRIPOS>MOLECULE
1o3k_ligand
   35    37     1     0     0
SMALL
GAST_HUCK


@<TRIPOS>ATOM
      1 C1         43.9150   -3.0920   26.1460 C.ar      1 SUB1        0.171
      2 C2         44.2420   -1.7110   26.2460 C.ar      1 SUB1       -0.020
      3 C3         44.1100   -1.0170   27.4450 C.ar      1 SUB1       -0.036
      4 C4         43.6600   -1.7010   28.5350 C.ar      1 SUB1        0.081
      5 C5         43.3340   -3.0220   28.4660 C.ar      1 SUB1        0.034
      6 C6         43.4450   -3.7550   27.2920 C.ar      1 SUB1       -0.007
      7 C7         44.0690   -3.7710   24.9270 C.cat     1 SUB1        0.310
      8 N1         43.8060   -5.0600   24.8600 N.pl3     1 SUB1       -0.201
      9 N2         44.4790   -3.0860   23.8770 N.pl3     1 SUB1       -0.201
     10 N3         43.4580   -1.2820   29.7430 N.pl3     1 SUB1       -0.251
     11 N4         42.9180   -3.4080   29.7040 N.2       1 SUB1       -0.310
     12 C8         43.0100   -2.2650   30.4850 C.2       1 SUB1        0.135
     13 C1'        42.7980   -2.1530   31.8580 C.ar      1 SUB1        0.061
     14 C2'        42.5490   -3.2970   32.6470 C.ar      1 SUB1       -0.047
     15 C3'        42.3350   -3.1720   34.0260 C.ar      1 SUB1       -0.049
     16 C31'       42.0340   -4.3620   34.9380 C.3       1 SUB1       -0.035
     17 C4'        42.3730   -1.9330   34.6090 C.ar      1 SUB1       -0.055
     18 C5'        42.6160   -0.8230   33.8360 C.ar      1 SUB1        0.041
     19 C6'        42.8320   -0.8830   32.4640 C.ar      1 SUB1        0.113
     20 O6'        43.0550    0.2890   31.7380 O.3       1 SUB1       -0.329
     21 BR5'       42.6340    0.8430   34.7960 Br        1 SUB1       -0.058
     22 H21        44.6100   -1.1690   25.3980 H         1 SUB1        0.059
     23 H31        44.3580    0.0300   27.5200 H         1 SUB1        0.055
     24 H61        43.1730   -4.7980   27.2790 H         1 SUB1        0.060
     25 H81        43.5290   -5.5420   25.7030 H         1 SUB1        0.192
     26 H82        43.8660   -5.6250   24.0460 H         1 SUB1        0.192
     27 H91        44.6340   -2.0930   23.9590 H         1 SUB1        0.192
     28 H92        44.6420   -3.4860   22.9810 H         1 SUB1        0.192
     29 H101       43.6030   -0.3760   30.0980 H         1 SUB1        0.230
     30 H141       42.5220   -4.2780   32.1970 H         1 SUB1        0.059
     31 H161       41.1720   -4.1190   35.5470 H         1 SUB1        0.037
     32 H162       41.8200   -5.2400   34.3500 H         1 SUB1        0.037
     33 H163       42.8810   -4.5400   35.5860 H         1 SUB1        0.037
     34 H171       42.2160   -1.8180   35.6730 H         1 SUB1        0.060
     35 H201       43.1834    0.0731   30.8218 H         1 SUB1        0.251
@<TRIPOS>BOND
     1    1    2 ar 
     2    1    6 ar 
     3    1    7 1  
     4    2    3 ar 
     5    2   22 1  
     6    3    4 ar 
     7    3   23 1  
     8    4    5 ar 
     9    4   10 1  
    10    5    6 ar 
    11    5   11 1  
    12    6   24 1  
    13    7    8 1  
    14    7    9 1  
    15    8   25 1  
    16    8   26 1  
    17    9   27 1  
    18    9   28 1  
    19   10   12 1  
    20   10   29 1  
    21   11   12 2  
    22   12   13 1  
    23   13   14 ar 
    24   13   19 ar 
    25   14   15 ar 
    26   14   30 1  
    27   15   16 1  
    28   15   17 ar 
    29   16   31 1  
    30   16   32 1  
    31   16   33 1  
    32   17   18 ar 
    33   17   34 1  
    34   18   19 ar 
    35   18   21 1  
    36   19   20 1  
    37   20   35 1  
@<TRIPOS>SUBSTRUCTURE
     1 SUB1        1 GROUP

