### 
### Created by X-TOOL on Mon Oct 24 23:44:46 2005
### 

@<TRIPOS>MOLECULE
1b7h_ligand
   66    65     1     0     0
SMALL
GAST_HUCK


@<TRIPOS>ATOM
      1 N          42.7730   31.7660   22.9020 N.4       1 SUB1        0.238
      2 CA         42.7770   33.2290   22.5870 C.3       1 SUB1        0.065
      3 C          41.9100   33.9400   23.6270 C.2       1 SUB1        0.227
      4 O          40.9170   33.4330   24.1420 O.2       1 SUB1       -0.391
      5 CB         42.3440   33.6180   21.1640 C.3       1 SUB1        0.008
      6 CG         40.9400   33.0310   20.8140 C.3       1 SUB1       -0.041
      7 CD         40.6820   33.3430   19.2990 C.3       1 SUB1       -0.012
      8 CE         41.2380   32.4520   18.2270 C.3       1 SUB1       -0.035
      9 NZ         40.9720   30.9770   18.4640 N.4       1 SUB1        0.219
     10 N          42.3690   35.1730   23.9330 N.am      1 SUB1       -0.261
     11 CA         41.7540   35.9690   24.9810 C.3       1 SUB1        0.131
     12 C          40.4550   36.6270   24.4590 C.2       1 SUB1        0.205
     13 O          40.4400   37.2050   23.3740 O.2       1 SUB1       -0.394
     14 CB         42.7440   37.0080   25.4310 C.3       1 SUB1       -0.012
     15 CG         43.8880   36.5610   26.3560 C.3       1 SUB1       -0.049
     16 CD         44.5690   37.8580   26.8770 C.3       1 SUB1       -0.056
     17 CE         45.1370   37.7110   28.3010 C.3       1 SUB1       -0.065
     18 N          39.4190   36.5760   25.2760 N.am      1 SUB1       -0.268
     19 CA         38.1820   37.1940   24.8790 C.3       1 SUB1        0.081
     20 C          37.8460   38.2870   25.9130 C.2       1 SUB1        0.053
     21 O          37.0810   39.1960   25.5310 O.co2     1 SUB1       -0.564
     22 CB         37.0060   36.2150   24.8230 C.3       1 SUB1       -0.018
     23 CG         35.8830   36.9050   23.9690 C.3       1 SUB1       -0.043
     24 CD         34.6810   36.0250   23.8880 C.3       1 SUB1       -0.012
     25 CE         33.4990   36.7010   23.1660 C.3       1 SUB1       -0.035
     26 NZ         33.7350   36.5710   21.6860 N.4       1 SUB1        0.219
     27 OXT        38.3900   38.1890   27.0480 O.co2     1 SUB1       -0.564
     28 H11        42.2164   31.6013   23.7261 H         1 SUB1        0.201
     29 H21        43.8124   33.5809   22.7061 H         1 SUB1        0.110
     30 H51        43.0826   33.2305   20.4468 H         1 SUB1        0.035
     31 H52        42.3017   34.7147   21.0902 H         1 SUB1        0.035
     32 H61        40.1659   33.5052   21.4352 H         1 SUB1        0.027
     33 H62        40.9312   31.9442   20.9835 H         1 SUB1        0.027
     34 H71        41.0863   34.3488   19.1122 H         1 SUB1        0.032
     35 H72        39.5906   33.3553   19.1623 H         1 SUB1        0.032
     36 H81        42.3261   32.6054   18.1771 H         1 SUB1        0.081
     37 H82        40.7831   32.7375   17.2670 H         1 SUB1        0.081
     38 H91        41.3997   30.6937   19.3317 H         1 SUB1        0.199
     39 H92        41.3619   30.4392   17.7059 H         1 SUB1        0.199
     40 H93        39.9777   30.8183   18.5119 H         1 SUB1        0.199
     41 H181       39.4933   36.1136   26.1596 H         1 SUB1        0.190
     42 H191       38.3140   37.6466   23.8852 H         1 SUB1        0.078
     43 H221       36.6366   36.0080   25.8382 H         1 SUB1        0.032
     44 H222       37.3189   35.2736   24.3477 H         1 SUB1        0.032
     45 H231       36.2632   37.0944   22.9543 H         1 SUB1        0.027
     46 H232       35.6034   37.8590   24.4398 H         1 SUB1        0.027
     47 H241       34.3667   35.7630   24.9091 H         1 SUB1        0.032
     48 H242       34.9508   35.1095   23.3412 H         1 SUB1        0.032
     49 H251       33.4470   37.7636   23.4455 H         1 SUB1        0.081
     50 H252       32.5574   36.2031   23.4408 H         1 SUB1        0.081
     51 H261       34.5965   37.0335   21.4413 H         1 SUB1        0.199
     52 H262       32.9710   36.9970   21.1852 H         1 SUB1        0.199
     53 H263       33.7956   35.5954   21.4398 H         1 SUB1        0.199
     54 H12        43.7176   31.4552   23.0669 H         1 SUB1        0.201
     55 H13        42.3823   31.2561   22.1252 H         1 SUB1        0.201
     56 H101       43.1477   35.5453   23.4280 H         1 SUB1        0.188
     57 H111       41.5034   35.3183   25.8317 H         1 SUB1        0.080
     58 H141       42.1801   37.7891   25.9619 H         1 SUB1        0.031
     59 H142       43.2022   37.4365   24.5275 H         1 SUB1        0.031
     60 H151       44.6121   35.9503   25.7967 H         1 SUB1        0.027
     61 H152       43.4890   35.9769   27.1984 H         1 SUB1        0.027
     62 H161       43.8247   38.6680   26.8787 H         1 SUB1        0.026
     63 H162       45.3930   38.1186   26.1965 H         1 SUB1        0.026
     64 H171       45.6031   38.6584   28.6094 H         1 SUB1        0.023
     65 H172       45.8910   36.9102   28.3142 H         1 SUB1        0.023
     66 H173       44.3227   37.4595   28.9964 H         1 SUB1        0.023
@<TRIPOS>BOND
     1    3    2 1  
     2    2    5 1  
     3    2    1 1  
     4    5    6 1  
     5    6    7 1  
     6    7    8 1  
     7    8    9 1  
     8    3    4 2  
     9   11   10 1  
    10   11   14 1  
    11   12   11 1  
    12   12   13 2  
    13   14   15 1  
    14   15   16 1  
    15   16   17 1  
    16   19   20 1  
    17   19   22 1  
    18   18   19 1  
    19   22   23 1  
    20   23   24 1  
    21   24   25 1  
    22   25   26 1  
    23   20   27 2  
    24   20   21 2  
    25   10    3 am 
    26   12   18 am 
    27    1   28 1  
    28    2   29 1  
    29    5   30 1  
    30    5   31 1  
    31    6   32 1  
    32    6   33 1  
    33    7   34 1  
    34    7   35 1  
    35    8   36 1  
    36    8   37 1  
    37    9   38 1  
    38    9   39 1  
    39    9   40 1  
    40   18   41 1  
    41   19   42 1  
    42   22   43 1  
    43   22   44 1  
    44   23   45 1  
    45   23   46 1  
    46   24   47 1  
    47   24   48 1  
    48   25   49 1  
    49   25   50 1  
    50   26   51 1  
    51   26   52 1  
    52   26   53 1  
    53    1   54 1  
    54    1   55 1  
    55   10   56 1  
    56   11   57 1  
    57   14   58 1  
    58   14   59 1  
    59   15   60 1  
    60   15   61 1  
    61   16   62 1  
    62   16   63 1  
    63   17   64 1  
    64   17   65 1  
    65   17   66 1  
@<TRIPOS>SUBSTRUCTURE
     1 SUB1        1 GROUP

