### 
### Created by X-TOOL on Tue Oct 25 02:34:58 2005
### 

@<TRIPOS>MOLECULE
1a4r_ligand
   42    44     1     0     0
SMALL
GAST_HUCK


@<TRIPOS>ATOM
      1 H151      102.1650   23.9586   -3.1665 H         1 SUB1        0.162
      2 H152      103.4580   25.0953   -2.9763 H         1 SUB1        0.162
      3 H241      104.5306   28.9505   -3.4103 H         1 SUB1        0.065
      4 H242      105.2779   27.8419   -2.2106 H         1 SUB1        0.065
      5 H251      106.8572   29.6421   -2.7302 H         1 SUB1        0.065
      6 H271      106.1769   29.1711   -0.0788 H         1 SUB1        0.065
      7 H281      108.1405   30.2929    0.3121 H         1 SUB1        0.210
      8 H291      104.7318   30.9403    0.2163 H         1 SUB1        0.067
      9 H301      107.1751   32.1932    0.8575 H         1 SUB1        0.210
     10 H311      106.4561   32.8002   -1.4424 H         1 SUB1        0.093
     11 H331      102.7469   31.5134   -1.0779 H         1 SUB1        0.115
     12 H381      103.2047   37.8264   -2.7673 H         1 SUB1        0.252
     13 H401      106.7409   37.3058   -2.7451 H         1 SUB1        0.190
     14 H402      105.4106   38.4650   -3.0082 H         1 SUB1        0.190
     15 N3B       102.4860   24.8700   -2.9090 N.am      1 SUB1       -0.279
     16 PB        101.5220   25.8860   -2.4280 P.3       1 SUB1        0.299
     17 O1B       100.9830   25.4700   -1.0790 O.co2     1 SUB1       -0.516
     18 O2B       100.3500   26.2500   -3.2730 O.2       1 SUB1       -0.516
     19 O3A       102.4090   27.1490   -2.1360 O.3       1 SUB1       -0.120
     20 PA        102.9800   27.8190   -0.7750 P.3       1 SUB1        0.355
     21 O1A       103.9320   26.8730   -0.1570 O.co2     1 SUB1       -0.525
     22 O2A       101.8500   28.3180    0.0570 O.co2     1 SUB1       -0.525
     23 O5'       103.7180   29.0170   -1.4980 O.3       1 SUB1       -0.241
     24 C5'       104.8640   28.8490   -2.3670 C.3       1 SUB1        0.113
     25 C4'       105.9930   29.8990   -2.1000 C.3       1 SUB1        0.118
     26 O4'       105.4820   31.1830   -2.4390 O.3       1 SUB1       -0.341
     27 C3'       106.4630   30.0620   -0.6570 C.3       1 SUB1        0.114
     28 O3'       107.8730   30.1930   -0.5940 O.3       1 SUB1       -0.386
     29 C2'       105.7350   31.2660   -0.0960 C.3       1 SUB1        0.133
     30 O2'       106.2980   31.8890    1.0590 O.3       1 SUB1       -0.384
     31 C1'       105.5820   32.1390   -1.3490 C.3       1 SUB1        0.183
     32 N9        104.3150   32.9430   -1.5100 N.3       1 SUB1       -0.154
     33 C8        103.0000   32.5360   -1.3540 C.2       1 SUB1        0.081
     34 N7        102.0730   33.4460   -1.5560 N.2       1 SUB1       -0.320
     35 C5        102.8070   34.5960   -1.8890 C.2       1 SUB1        0.094
     36 C6        102.3660   35.9710   -2.2360 C.2       1 SUB1        0.216
     37 O6        101.2060   36.3850   -2.3060 O.2       1 SUB1       -0.408
     38 N1        103.4480   36.8880   -2.5220 N.am      1 SUB1       -0.183
     39 C2        104.8390   36.5560   -2.4810 C.2       1 SUB1        0.236
     40 N2        105.7330   37.5170   -2.7670 N.pl3     1 SUB1       -0.280
     41 N3        105.2800   35.2710   -2.1570 N.2       1 SUB1       -0.277
     42 C4        104.2050   34.3230   -1.8660 C.2       1 SUB1        0.101
@<TRIPOS>BOND
     1   15    1 1  
     2   15    2 1  
     3   24    3 1  
     4   24    4 1  
     5   25    5 1  
     6   27    6 1  
     7   28    7 1  
     8   29    8 1  
     9   30    9 1  
    10   31   10 1  
    11   33   11 1  
    12   38   12 1  
    13   40   13 1  
    14   40   14 1  
    15   16   15 am 
    16   16   17 ar 
    17   16   18 2  
    18   19   16 1  
    19   20   19 1  
    20   20   21 ar 
    21   20   22 ar 
    22   23   20 1  
    23   24   23 1  
    24   25   24 1  
    25   26   25 1  
    26   27   25 1  
    27   31   26 1  
    28   27   28 1  
    29   29   27 1  
    30   29   30 1  
    31   31   29 1  
    32   32   31 1  
    33   32   33 1  
    34   42   32 1  
    35   34   33 2  
    36   35   34 1  
    37   36   35 1  
    38   35   42 2  
    39   36   37 2  
    40   38   36 am 
    41   39   38 am 
    42   39   40 1  
    43   39   41 2  
    44   41   42 1  
@<TRIPOS>SUBSTRUCTURE
     1 SUB1        1 GROUP

