1a4r_ligand
  -I-interpret- 

 42 44  0  0  0  0  0  0  0  0999 V2000
  102.1650   23.9586   -3.1665 H   0  0  0  0  0
  103.4580   25.0953   -2.9763 H   0  0  0  0  0
  104.5306   28.9505   -3.4103 H   0  0  0  0  0
  105.2779   27.8419   -2.2106 H   0  0  0  0  0
  106.8572   29.6421   -2.7302 H   0  0  0  0  0
  106.1769   29.1711   -0.0788 H   0  0  0  0  0
  108.1405   30.2929    0.3121 H   0  0  0  0  0
  104.7318   30.9403    0.2163 H   0  0  0  0  0
  107.1751   32.1932    0.8575 H   0  0  0  0  0
  106.4561   32.8002   -1.4424 H   0  0  0  0  0
  102.7469   31.5134   -1.0779 H   0  0  0  0  0
  103.2047   37.8264   -2.7673 H   0  0  0  0  0
  106.7409   37.3058   -2.7451 H   0  0  0  0  0
  105.4106   38.4650   -3.0082 H   0  0  0  0  0
  102.4860   24.8700   -2.9090 N   0  0  0  0  0
  101.5220   25.8860   -2.4280 P   0  0  0  0  0
  100.9830   25.4700   -1.0790 O   0  5  0  0  0
  100.3500   26.2500   -3.2730 O   0  0  0  0  0
  102.4090   27.1490   -2.1360 O   0  0  0  0  0
  102.9800   27.8190   -0.7750 P   0  0  0  0  0
  103.9320   26.8730   -0.1570 O   0  0  0  0  0
  101.8500   28.3180    0.0570 O   0  5  0  0  0
  103.7180   29.0170   -1.4980 O   0  0  0  0  0
  104.8640   28.8490   -2.3670 C   0  0  0  0  0
  105.9930   29.8990   -2.1000 C   0  0  0  0  0
  105.4820   31.1830   -2.4390 O   0  0  0  0  0
  106.4630   30.0620   -0.6570 C   0  0  0  0  0
  107.8730   30.1930   -0.5940 O   0  0  0  0  0
  105.7350   31.2660   -0.0960 C   0  0  0  0  0
  106.2980   31.8890    1.0590 O   0  0  0  0  0
  105.5820   32.1390   -1.3490 C   0  0  0  0  0
  104.3150   32.9430   -1.5100 N   0  0  0  0  0
  103.0000   32.5360   -1.3540 C   0  0  0  0  0
  102.0730   33.4460   -1.5560 N   0  0  0  0  0
  102.8070   34.5960   -1.8890 C   0  0  0  0  0
  102.3660   35.9710   -2.2360 C   0  0  0  0  0
  101.2060   36.3850   -2.3060 O   0  0  0  0  0
  103.4480   36.8880   -2.5220 N   0  0  0  0  0
  104.8390   36.5560   -2.4810 C   0  0  0  0  0
  105.7330   37.5170   -2.7670 N   0  0  0  0  0
  105.2800   35.2710   -2.1570 N   0  0  0  0  0
  104.2050   34.3230   -1.8660 C   0  0  0  0  0
 15  1  1  0  0  0
 15  2  1  0  0  0
 24  3  1  0  0  0
 24  4  1  0  0  0
 25  5  1  0  0  0
 27  6  1  0  0  0
 28  7  1  0  0  0
 29  8  1  0  0  0
 30  9  1  0  0  0
 31 10  1  0  0  0
 33 11  1  0  0  0
 38 12  1  0  0  0
 40 13  1  0  0  0
 40 14  1  0  0  0
 16 15  1  0  0  0
 16 17  1  0  0  0
 16 18  2  0  0  0
 19 16  1  0  0  0
 20 19  1  0  0  0
 20 21  2  0  0  0
 20 22  1  0  0  0
 23 20  1  0  0  0
 24 23  1  0  0  0
 25 24  1  0  0  0
 26 25  1  0  0  0
 27 25  1  0  0  0
 31 26  1  0  0  0
 27 28  1  0  0  0
 29 27  1  0  0  0
 29 30  1  0  0  0
 31 29  1  0  0  0
 32 31  1  0  0  0
 32 33  1  0  0  0
 42 32  1  0  0  0
 34 33  2  0  0  0
 35 34  1  0  0  0
 36 35  1  0  0  0
 35 42  2  0  0  0
 36 37  2  0  0  0
 38 36  1  0  0  0
 39 38  1  0  0  0
 39 40  1  0  0  0
 39 41  2  0  0  0
 41 42  1  0  0  0
M  END
$$$$
