### 
### Created by X-TOOL on Mon Oct 24 21:59:45 2005
### 

@<TRIPOS>MOLECULE
8abp_ligand
   24    24     1     0     0
SMALL
GAST_HUCK


@<TRIPOS>ATOM
      1 C1         14.3120   56.8460   55.1160 C.3       1 SUB1        0.185
      2 C2         12.8730   57.1400   54.7490 C.3       1 SUB1        0.134
      3 C3         12.3730   56.2560   53.6260 C.3       1 SUB1        0.114
      4 C4         13.3340   56.3640   52.4010 C.3       1 SUB1        0.112
      5 C5         14.7350   56.0540   52.8460 C.3       1 SUB1        0.113
      6 C6         15.6850   56.3570   51.6840 C.3       1 SUB1        0.073
      7 O1         14.4010   55.5650   55.6850 O.3       1 SUB1       -0.365
      8 O2         12.0230   56.9890   55.9270 O.3       1 SUB1       -0.384
      9 O3         11.0680   56.6300   53.2440 O.3       1 SUB1       -0.386
     10 O4         13.1840   57.6940   51.7930 O.3       1 SUB1       -0.387
     11 O5         15.1350   56.8820   53.9220 O.3       1 SUB1       -0.341
     12 O6         16.8900   55.7810   52.0740 O.3       1 SUB1       -0.392
     13 H11        14.6690   57.5974   55.8357 H         1 SUB1        0.094
     14 H21        12.8148   58.1846   54.4093 H         1 SUB1        0.067
     15 H31        12.3552   55.2133   53.9760 H         1 SUB1        0.065
     16 H41        13.0426   55.6134   51.6516 H         1 SUB1        0.065
     17 H51        14.8049   54.9961   53.1393 H         1 SUB1        0.065
     18 H61        15.7978   57.4422   51.5442 H         1 SUB1        0.058
     19 H62        15.3188   55.9032   50.7513 H         1 SUB1        0.058
     20 H71        13.8652   55.5299   56.4687 H         1 SUB1        0.213
     21 H81        12.0385   56.0832   56.2133 H         1 SUB1        0.210
     22 H91        11.0761   57.5261   52.9285 H         1 SUB1        0.210
     23 H101       12.2785   57.8233   51.5361 H         1 SUB1        0.210
     24 H121       17.1808   56.1774   52.8869 H         1 SUB1        0.209
@<TRIPOS>BOND
     1    1    2 1  
     2    1    7 1  
     3    1   11 1  
     4    2    3 1  
     5    2    8 1  
     6    3    4 1  
     7    3    9 1  
     8    4    5 1  
     9    4   10 1  
    10    5    6 1  
    11    5   11 1  
    12    6   12 1  
    13    1   13 1  
    14    2   14 1  
    15    3   15 1  
    16    4   16 1  
    17    5   17 1  
    18    6   18 1  
    19    6   19 1  
    20    7   20 1  
    21    8   21 1  
    22    9   22 1  
    23   10   23 1  
    24   12   24 1  
@<TRIPOS>SUBSTRUCTURE
     1 SUB1        1 GROUP

