8abp_ligand
  -I-interpret- 

 24 24  0  0  0  0  0  0  0  0999 V2000
   14.3120   56.8460   55.1160 C   0  0  0  0  0
   12.8730   57.1400   54.7490 C   0  0  0  0  0
   12.3730   56.2560   53.6260 C   0  0  0  0  0
   13.3340   56.3640   52.4010 C   0  0  0  0  0
   14.7350   56.0540   52.8460 C   0  0  0  0  0
   15.6850   56.3570   51.6840 C   0  0  0  0  0
   14.4010   55.5650   55.6850 O   0  0  0  0  0
   12.0230   56.9890   55.9270 O   0  0  0  0  0
   11.0680   56.6300   53.2440 O   0  0  0  0  0
   13.1840   57.6940   51.7930 O   0  0  0  0  0
   15.1350   56.8820   53.9220 O   0  0  0  0  0
   16.8900   55.7810   52.0740 O   0  0  0  0  0
   14.6690   57.5974   55.8357 H   0  0  0  0  0
   12.8148   58.1846   54.4093 H   0  0  0  0  0
   12.3552   55.2133   53.9760 H   0  0  0  0  0
   13.0426   55.6134   51.6516 H   0  0  0  0  0
   14.8049   54.9961   53.1393 H   0  0  0  0  0
   15.7978   57.4422   51.5442 H   0  0  0  0  0
   15.3188   55.9032   50.7513 H   0  0  0  0  0
   13.8652   55.5299   56.4687 H   0  0  0  0  0
   12.0385   56.0832   56.2133 H   0  0  0  0  0
   11.0761   57.5261   52.9285 H   0  0  0  0  0
   12.2785   57.8233   51.5361 H   0  0  0  0  0
   17.1808   56.1774   52.8869 H   0  0  0  0  0
  1  2  1  0  0  0
  1  7  1  0  0  0
  1 11  1  0  0  0
  2  3  1  0  0  0
  2  8  1  0  0  0
  3  4  1  0  0  0
  3  9  1  0  0  0
  4  5  1  0  0  0
  4 10  1  0  0  0
  5  6  1  0  0  0
  5 11  1  0  0  0
  6 12  1  0  0  0
  1 13  1  0  0  0
  2 14  1  0  0  0
  3 15  1  0  0  0
  4 16  1  0  0  0
  5 17  1  0  0  0
  6 18  1  0  0  0
  6 19  1  0  0  0
  7 20  1  0  0  0
  8 21  1  0  0  0
  9 22  1  0  0  0
 10 23  1  0  0  0
 12 24  1  0  0  0
M  END
$$$$
