### 
### Created by X-TOOL on Mon Oct 24 21:59:44 2005
### 

@<TRIPOS>MOLECULE
2izl_ligand
   33    34     1     0     0
SMALL
GAST_HUCK


@<TRIPOS>ATOM
      1 C11        29.2980   14.3270   -9.8890 C.2       1 SUB1        0.028
      2 O11        28.0900   14.1070   -9.8120 O.co2     1 SUB1       -0.567
      3 O12        30.0100   13.9020  -10.7890 O.co2     1 SUB1       -0.567
      4 C10        29.9750   15.2140   -8.8110 C.3       1 SUB1       -0.014
      5 C9         31.4330   14.8050   -8.4620 C.3       1 SUB1       -0.041
      6 C8         31.4760   13.4260   -7.7710 C.3       1 SUB1       -0.049
      7 C7         32.8560   13.2180   -7.1340 C.3       1 SUB1       -0.039
      8 C2         32.8280   11.9210   -6.2780 C.3       1 SUB1        0.029
      9 S1         32.0850   12.0150   -4.6360 S.3       1 SUB1       -0.153
     10 C6         32.8850   10.4480   -4.1980 C.3       1 SUB1        0.018
     11 C5         34.2070   10.2490   -4.9770 C.3       1 SUB1        0.094
     12 N1         35.3210   10.7870   -4.1460 N.pl3     1 SUB1       -0.164
     13 C3         35.8070   11.8830   -4.6390 C.cat     1 SUB1        0.390
     14 N3         36.7610   12.5430   -4.0600 N.pl3     1 SUB1       -0.183
     15 N2         35.2340   12.2360   -5.7600 N.pl3     1 SUB1       -0.164
     16 C4         34.2240   11.2500   -6.2010 C.3       1 SUB1        0.096
     17 H41        29.3731   15.1574   -7.8920 H         1 SUB1        0.048
     18 H42        29.9876   16.2510   -9.1778 H         1 SUB1        0.048
     19 H51        31.8650   15.5582   -7.7867 H         1 SUB1        0.030
     20 H52        32.0246   14.7606   -9.3883 H         1 SUB1        0.030
     21 H61        31.2926   12.6368   -8.5150 H         1 SUB1        0.027
     22 H62        30.7015   13.3820   -6.9912 H         1 SUB1        0.027
     23 H71        33.0996   14.0779   -6.4927 H         1 SUB1        0.028
     24 H72        33.6160   13.1224   -7.9235 H         1 SUB1        0.028
     25 H81        32.1860   11.2281   -6.8416 H         1 SUB1        0.043
     26 H101       32.2019    9.6192   -4.4357 H         1 SUB1        0.040
     27 H102       33.1020   10.4466   -3.1196 H         1 SUB1        0.040
     28 H111       34.3531    9.1997   -5.2731 H         1 SUB1        0.056
     29 H121       35.6638   10.3413   -3.2830 H         1 SUB1        0.199
     30 H141       37.1190   13.4102   -4.4852 H         1 SUB1        0.194
     31 H142       37.1609   12.2002   -3.1749 H         1 SUB1        0.194
     32 H151       35.4595   13.0990   -6.2751 H         1 SUB1        0.199
     33 H161       34.4908   10.7662   -7.1522 H         1 SUB1        0.057
@<TRIPOS>BOND
     1    1    4 1  
     2    1    3 2  
     3    1    2 2  
     4    4   17 1  
     5    4   18 1  
     6    4    5 1  
     7    5   19 1  
     8    5   20 1  
     9    5    6 1  
    10    6   21 1  
    11    6   22 1  
    12    6    7 1  
    13    7   23 1  
    14    7   24 1  
    15    7    8 1  
    16    8   16 1  
    17    8    9 1  
    18    9   10 1  
    19    8   25 1  
    20   10   26 1  
    21   10   11 1  
    22   11   16 1  
    23   11   12 1  
    24   12   13 1  
    25   13   15 1  
    26   13   14 1  
    27   10   27 1  
    28   11   28 1  
    29   15   16 1  
    30   12   29 1  
    31   14   30 1  
    32   14   31 1  
    33   15   32 1  
    34   16   33 1  
@<TRIPOS>SUBSTRUCTURE
     1 SUB1        1 GROUP

