1ghv_ligand
  -I-interpret- 

 31 33  0  0  0  0  0  0  0  0999 V2000
   11.8160  -11.7880   22.9290 C   0  0  0  0  0
   12.3380  -10.5140   22.5970 C   0  0  0  0  0
   13.2450  -10.3690   21.5590 C   0  0  0  0  0
   13.5950  -11.5020   20.8900 C   0  0  0  0  0
   13.1270  -12.7400   21.1680 C   0  0  0  0  0
   12.2210  -12.9280   22.1960 C   0  0  0  0  0
   10.9220  -11.9140   23.9730 C   0  3  0  0  0
   10.2600  -13.0300   24.0920 N   0  0  0  0  0
   10.7710  -10.9130   24.8170 N   0  0  0  0  0
   14.3940  -11.6540   19.9230 N   0  0  0  0  0
   13.6190  -13.6650   20.3810 N   0  0  0  0  0
   14.4070  -12.9200   19.6150 C   0  0  0  0  0
   15.1520  -13.4170   18.5520 C   0  0  0  0  0
   14.9440  -14.7360   18.1510 C   0  0  0  0  0
   15.6750  -15.2340   17.0950 C   0  0  0  0  0
   16.5960  -14.4010   16.4620 C   0  0  0  0  0
   16.7800  -13.1550   16.8550 N   0  0  0  0  0
   16.1130  -12.6250   17.8570 C   0  0  0  0  0
   16.3280  -11.4690   18.1790 O   0  0  0  0  0
   12.0248   -9.6428   23.1608 H   0  0  0  0  0
   13.6553   -9.4016   21.2930 H   0  0  0  0  0
   11.8352  -13.9133   22.4315 H   0  0  0  0  0
    9.5868  -13.1498   24.8623 H   0  0  0  0  0
   10.4099  -13.7924   23.4158 H   0  0  0  0  0
   11.3124  -10.0461   24.6899 H   0  0  0  0  0
   10.1116  -10.9977   25.6037 H   0  0  0  0  0
   13.4443  -14.6799   20.3621 H   0  0  0  0  0
   14.2157  -15.3622   18.6641 H   0  0  0  0  0
   15.5357  -16.2609   16.7604 H   0  0  0  0  0
   17.1762  -14.7869   15.6251 H   0  0  0  0  0
   15.7713  -11.2371   18.9130 H   0  0  0  0  0
  1  7  1  0  0  0
  1  6  4  0  0  0
  1  2  4  0  0  0
  2  3  4  0  0  0
  3  4  4  0  0  0
  4 10  1  0  0  0
  4  5  4  0  0  0
  5 11  1  0  0  0
  5  6  4  0  0  0
 11 12  1  0  0  0
 12 13  1  0  0  0
 12 10  2  0  0  0
 13 18  4  0  0  0
 13 14  4  0  0  0
 14 15  4  0  0  0
 15 16  4  0  0  0
 16 17  4  0  0  0
 17 18  4  0  0  0
 18 19  1  0  0  0
  7  9  1  0  0  0
  7  8  1  0  0  0
  2 20  1  0  0  0
  3 21  1  0  0  0
  6 22  1  0  0  0
  8 23  1  0  0  0
  8 24  1  0  0  0
  9 25  1  0  0  0
  9 26  1  0  0  0
 11 27  1  0  0  0
 14 28  1  0  0  0
 15 29  1  0  0  0
 16 30  1  0  0  0
 19 31  1  0  0  0
M  END
$$$$
