### 
### Created by X-TOOL on Mon Oct 24 22:51:50 2005
### 

@<TRIPOS>MOLECULE
1ghv_ligand
   31    33     1     0     0
SMALL
GAST_HUCK


@<TRIPOS>ATOM
      1 C1         11.8160  -11.7880   22.9290 C.ar      1 SUB1        0.174
      2 C2         12.3380  -10.5140   22.5970 C.ar      1 SUB1       -0.022
      3 C3         13.2450  -10.3690   21.5590 C.ar      1 SUB1       -0.057
      4 C4         13.5950  -11.5020   20.8900 C.ar      1 SUB1        0.032
      5 C5         13.1270  -12.7400   21.1680 C.ar      1 SUB1        0.086
      6 C6         12.2210  -12.9280   22.1960 C.ar      1 SUB1        0.015
      7 C7         10.9220  -11.9140   23.9730 C.cat     1 SUB1        0.311
      8 N1         10.2600  -13.0300   24.0920 N.pl3     1 SUB1       -0.201
      9 N2         10.7710  -10.9130   24.8170 N.pl3     1 SUB1       -0.201
     10 N3         14.3940  -11.6540   19.9230 N.2       1 SUB1       -0.307
     11 N4         13.6190  -13.6650   20.3810 N.pl3     1 SUB1       -0.250
     12 C8         14.4070  -12.9200   19.6150 C.2       1 SUB1        0.144
     13 C1'        15.1520  -13.4170   18.5520 C.ar      1 SUB1        0.093
     14 C2'        14.9440  -14.7360   18.1510 C.ar      1 SUB1       -0.033
     15 C3'        15.6750  -15.2340   17.0950 C.ar      1 SUB1       -0.041
     16 C4'        16.5960  -14.4010   16.4620 C.ar      1 SUB1        0.003
     17 N5'        16.7800  -13.1550   16.8550 N.ar      1 SUB1       -0.267
     18 C6'        16.1130  -12.6250   17.8570 C.ar      1 SUB1        0.183
     19 O6'        16.3280  -11.4690   18.1790 O.3       1 SUB1       -0.308
     20 H21        12.0248   -9.6428   23.1608 H         1 SUB1        0.057
     21 H31        13.6553   -9.4016   21.2930 H         1 SUB1        0.055
     22 H61        11.8352  -13.9133   22.4315 H         1 SUB1        0.059
     23 H81         9.5868  -13.1498   24.8623 H         1 SUB1        0.192
     24 H82        10.4099  -13.7924   23.4158 H         1 SUB1        0.192
     25 H91        11.3124  -10.0461   24.6899 H         1 SUB1        0.192
     26 H92        10.1116  -10.9977   25.6037 H         1 SUB1        0.192
     27 H111       13.4443  -14.6799   20.3621 H         1 SUB1        0.230
     28 H141       14.2157  -15.3622   18.6641 H         1 SUB1        0.075
     29 H151       15.5357  -16.2609   16.7604 H         1 SUB1        0.063
     30 H161       17.1762  -14.7869   15.6251 H         1 SUB1        0.082
     31 H191       15.7713  -11.2371   18.9130 H         1 SUB1        0.257
@<TRIPOS>BOND
     1    1    7 1  
     2    1    6 ar 
     3    1    2 ar 
     4    2    3 ar 
     5    3    4 ar 
     6    4   10 1  
     7    4    5 ar 
     8    5   11 1  
     9    5    6 ar 
    10   11   12 1  
    11   12   13 1  
    12   12   10 2  
    13   13   18 ar 
    14   13   14 ar 
    15   14   15 ar 
    16   15   16 ar 
    17   16   17 ar 
    18   17   18 ar 
    19   18   19 1  
    20    7    9 1  
    21    7    8 1  
    22    2   20 1  
    23    3   21 1  
    24    6   22 1  
    25    8   23 1  
    26    8   24 1  
    27    9   25 1  
    28    9   26 1  
    29   11   27 1  
    30   14   28 1  
    31   15   29 1  
    32   16   30 1  
    33   19   31 1  
@<TRIPOS>SUBSTRUCTURE
     1 SUB1        1 GROUP

