1hk4_ligand
  -I-interpret- 

 35 36  0  0  0  0  0  0  0  0999 V2000
   19.9390   10.5710   28.4700 C   0  0  0  0  0
   21.1460   10.1870   27.8620 C   0  0  0  0  0
   21.3810   10.3590   26.4820 C   0  0  0  0  0
   20.3590   10.9500   25.6550 C   0  0  0  0  0
   19.1670   11.3290   26.2560 C   0  0  0  0  0
   18.9280   11.1580   27.6480 C   0  0  0  0  0
   19.7550   10.3650   29.9740 C   0  0  0  0  0
   20.0590    8.9880   30.5470 C   0  0  0  0  0
   20.2560    8.9390   32.0910 C   0  0  0  0  0
   21.2590   12.2440   23.7610 C   0  0  0  0  0
   21.4640   12.2220   22.3660 C   0  0  0  0  0
   22.1220   13.3170   21.7680 C   0  0  0  0  0
   22.6000   14.4820   22.5190 C   0  0  0  0  0
   22.3470   14.4070   23.9110 C   0  0  0  0  0
   21.6970   13.3410   24.5500 C   0  0  0  0  0
   18.9170    8.0720   30.2060 N   0  3  0  0  0
   20.5960   11.1190   24.2950 O   0  0  0  0  0
   23.2050   15.4860   21.9370 O   0  0  0  0  0
   19.5000    9.6380   32.7860 O   0  5  0  0  0
   21.1510    8.2040   32.5210 O   0  0  0  0  0
   23.2130    9.7650   25.6740 I   0  0  0  0  0
   22.4340   13.3230   19.6990 I   0  0  0  0  0
   17.6480   12.2010   25.0820 I   0  0  0  0  0
   22.9680   15.9870   25.1110 I   0  0  0  0  0
   21.9229    9.7435   28.4742 H   0  0  0  0  0
   17.9853   11.4709   28.0822 H   0  0  0  0  0
   20.4148   11.0763   30.4923 H   0  0  0  0  0
   18.7044   10.5836   30.2155 H   0  0  0  0  0
   20.9730    8.6082   30.0672 H   0  0  0  0  0
   21.1243   11.3842   21.7679 H   0  0  0  0  0
   21.5326   13.3540   25.6214 H   0  0  0  0  0
   19.1078    7.1560   30.5810 H   0  0  0  0  0
   18.0631    8.4214   30.6118 H   0  0  0  0  0
   18.8188    8.0030   29.2052 H   0  0  0  0  0
   23.2640   15.3206   21.0033 H   0  0  0  0  0
  2  1  4  0  0  0
  6  1  4  0  0  0
  1  7  1  0  0  0
  3  2  4  0  0  0
  4  3  4  0  0  0
  3 21  1  0  0  0
  4  5  4  0  0  0
 17  4  1  0  0  0
  5  6  4  0  0  0
  5 23  1  0  0  0
  7  8  1  0  0  0
  8  9  1  0  0  0
  8 16  1  0  0  0
  9 19  1  0  0  0
  9 20  2  0  0  0
 10 11  4  0  0  0
 10 15  4  0  0  0
 17 10  1  0  0  0
 11 12  4  0  0  0
 12 13  4  0  0  0
 12 22  1  0  0  0
 13 14  4  0  0  0
 13 18  1  0  0  0
 14 15  4  0  0  0
 14 24  1  0  0  0
  2 25  1  0  0  0
  6 26  1  0  0  0
  7 27  1  0  0  0
  7 28  1  0  0  0
  8 29  1  0  0  0
 11 30  1  0  0  0
 15 31  1  0  0  0
 16 32  1  0  0  0
 16 33  1  0  0  0
 16 34  1  0  0  0
 18 35  1  0  0  0
M  END
$$$$
