### 
### Created by X-TOOL on Tue Oct 25 02:20:32 2005
### 

@<TRIPOS>MOLECULE
1hk4_ligand
   35    36     1     0     0
SMALL
GAST_HUCK


@<TRIPOS>ATOM
      1 C1         19.9390   10.5710   28.4700 C.ar      1 SUB1       -0.039
      2 C2         21.1460   10.1870   27.8620 C.ar      1 SUB1       -0.054
      3 C3         21.3810   10.3590   26.4820 C.ar      1 SUB1        0.038
      4 C4         20.3590   10.9500   25.6550 C.ar      1 SUB1        0.129
      5 C5         19.1670   11.3290   26.2560 C.ar      1 SUB1        0.038
      6 C6         18.9280   11.1580   27.6480 C.ar      1 SUB1       -0.054
      7 C7         19.7550   10.3650   29.9740 C.3       1 SUB1        0.032
      8 C8         20.0590    8.9880   30.5470 C.3       1 SUB1        0.023
      9 C9         20.2560    8.9390   32.0910 C.2       1 SUB1        0.078
     10 C1'        21.2590   12.2440   23.7610 C.ar      1 SUB1        0.111
     11 C2'        21.4640   12.2220   22.3660 C.ar      1 SUB1       -0.023
     12 C3'        22.1220   13.3170   21.7680 C.ar      1 SUB1        0.033
     13 C4'        22.6000   14.4820   22.5190 C.ar      1 SUB1        0.100
     14 C5'        22.3470   14.4070   23.9110 C.ar      1 SUB1        0.033
     15 C6'        21.6970   13.3410   24.5500 C.ar      1 SUB1       -0.023
     16 N8         18.9170    8.0720   30.2060 N.4       1 SUB1        0.240
     17 O4         20.5960   11.1190   24.2950 O.3       1 SUB1       -0.264
     18 O4'        23.2050   15.4860   21.9370 O.3       1 SUB1       -0.336
     19 O9         19.5000    9.6380   32.7860 O.co2     1 SUB1       -0.561
     20 O10        21.1510    8.2040   32.5210 O.co2     1 SUB1       -0.561
     21 I3         23.2130    9.7650   25.6740 I         1 SUB1       -0.057
     22 I3'        22.4340   13.3230   19.6990 I         1 SUB1       -0.059
     23 I5         17.6480   12.2010   25.0820 I         1 SUB1       -0.057
     24 I5'        22.9680   15.9870   25.1110 I         1 SUB1       -0.059
     25 H21        21.9229    9.7435   28.4742 H         1 SUB1        0.058
     26 H61        17.9853   11.4709   28.0822 H         1 SUB1        0.058
     27 H71        20.4148   11.0763   30.4923 H         1 SUB1        0.050
     28 H72        18.7044   10.5836   30.2155 H         1 SUB1        0.050
     29 H81        20.9730    8.6082   30.0672 H         1 SUB1        0.109
     30 H111       21.1243   11.3842   21.7679 H         1 SUB1        0.058
     31 H151       21.5326   13.3540   25.6214 H         1 SUB1        0.058
     32 H161       19.1078    7.1560   30.5810 H         1 SUB1        0.202
     33 H162       18.0631    8.4214   30.6118 H         1 SUB1        0.202
     34 H163       18.8188    8.0030   29.2052 H         1 SUB1        0.202
     35 H181       23.2640   15.3206   21.0033 H         1 SUB1        0.247
@<TRIPOS>BOND
     1    2    1 ar 
     2    6    1 ar 
     3    1    7 1  
     4    3    2 ar 
     5    4    3 ar 
     6    3   21 1  
     7    4    5 ar 
     8   17    4 1  
     9    5    6 ar 
    10    5   23 1  
    11    7    8 1  
    12    8    9 1  
    13    8   16 1  
    14    9   19 2  
    15    9   20 2  
    16   10   11 ar 
    17   10   15 ar 
    18   17   10 1  
    19   11   12 ar 
    20   12   13 ar 
    21   12   22 1  
    22   13   14 ar 
    23   13   18 1  
    24   14   15 ar 
    25   14   24 1  
    26    2   25 1  
    27    6   26 1  
    28    7   27 1  
    29    7   28 1  
    30    8   29 1  
    31   11   30 1  
    32   15   31 1  
    33   16   32 1  
    34   16   33 1  
    35   16   34 1  
    36   18   35 1  
@<TRIPOS>SUBSTRUCTURE
     1 SUB1        1 GROUP

