### 
### Created by X-TOOL on Tue Oct 25 02:43:25 2005
### 

@<TRIPOS>MOLECULE
1tvo_ligand
   39    43     1     0     0
SMALL
GAST_HUCK


@<TRIPOS>ATOM
      1 C1         11.5040   -5.7240   14.4460 C.ar      1 SUB1       -0.053
      2 C2         11.1560   -5.2580   15.7780 C.ar      1 SUB1        0.010
      3 N3          9.8050   -4.9890   16.0940 N.ar      1 SUB1       -0.261
      4 C4          8.7110   -5.1280   15.2100 C.ar      1 SUB1        0.049
      5 C5          9.0180   -5.5610   13.8530 C.ar      1 SUB1       -0.049
      6 C6         10.4020   -5.8570   13.4960 C.ar      1 SUB1       -0.062
      7 N7          9.3480   -4.5910   17.4250 N.pl3     1 SUB1       -0.203
      8 C8          7.9410   -4.5200   17.3180 C.2       1 SUB1        0.120
      9 C9          7.5010   -4.8360   15.9620 C.2       1 SUB1        0.061
     10 C10         6.1390   -4.8200   15.4290 C.ar      1 SUB1        0.115
     11 C11         7.2430   -4.1580   18.5460 C.ar      1 SUB1        0.025
     12 C12         7.8090   -3.1670   19.4580 C.ar      1 SUB1       -0.046
     13 C13         7.0640   -2.6020   20.5780 C.ar      1 SUB1       -0.057
     14 C14         5.6990   -3.0090   20.8540 C.ar      1 SUB1       -0.058
     15 C15         5.1220   -4.0260   19.9930 C.ar      1 SUB1       -0.057
     16 C16         5.8900   -4.5790   18.8870 C.ar      1 SUB1       -0.046
     17 C22         5.2240   -3.6860   15.6090 C.ar      1 SUB1        0.054
     18 C23         3.7830   -3.7150   15.4050 C.ar      1 SUB1        0.169
     19 C24         3.0980   -4.9090   14.9750 C.ar      1 SUB1        0.258
     20 N25         3.9300   -6.0350   14.7410 N.ar      1 SUB1       -0.138
     21 N26         5.5090   -6.0060   14.9660 N.ar      1 SUB1       -0.180
     22 C27         2.7430   -2.7440   15.6320 C.2       1 SUB1        0.229
     23 N28         1.4710   -3.2920   15.3700 N.2       1 SUB1       -0.080
     24 N29         1.7120   -4.6510   14.9570 N.pl3     1 SUB1       -0.137
     25 N30         2.9010   -1.4330   16.1170 N.pl3     1 SUB1       -0.296
     26 H11        12.5259   -5.9601   14.1722 H         1 SUB1        0.062
     27 H21        11.9287   -5.1175   16.5252 H         1 SUB1        0.069
     28 H51         8.2281   -5.6621   13.1175 H         1 SUB1        0.063
     29 H61        10.6206   -6.1882   12.4873 H         1 SUB1        0.060
     30 H121        8.8285   -2.8365   19.2952 H         1 SUB1        0.066
     31 H131        7.5388   -1.8649   21.2154 H         1 SUB1        0.063
     32 H141        5.1334   -2.5721   21.6690 H         1 SUB1        0.065
     33 H151        4.1123   -4.3758   20.1752 H         1 SUB1        0.063
     34 H161        5.4281   -5.3499   18.2809 H         1 SUB1        0.066
     35 H171        5.6600   -2.7440   15.9214 H         1 SUB1        0.132
     36 H241        0.9843   -5.3292   14.6899 H         1 SUB1        0.282
     37 H251        2.0776   -0.8263   16.2390 H         1 SUB1        0.191
     38 H252        3.8401   -1.0798   16.3501 H         1 SUB1        0.191
     39 H71         9.9250   -4.4036   18.2574 H         1 SUB1        0.259
@<TRIPOS>BOND
     1    1    2 ar 
     2    1    6 ar 
     3    2    3 ar 
     4    3    4 ar 
     5    3    7 1  
     6    4    5 ar 
     7    4    9 1  
     8    5    6 ar 
     9    7    8 1  
    10    8    9 2  
    11    8   11 1  
    12    9   10 1  
    13   10   17 ar 
    14   10   21 ar 
    15   11   12 ar 
    16   11   16 ar 
    17   12   13 ar 
    18   13   14 ar 
    19   14   15 ar 
    20   15   16 ar 
    21   17   18 ar 
    22   18   19 ar 
    23   18   22 1  
    24   19   20 ar 
    25   19   24 1  
    26   20   21 ar 
    27   22   23 2  
    28   22   25 1  
    29   23   24 1  
    30    1   26 1  
    31    2   27 1  
    32    5   28 1  
    33    6   29 1  
    34   12   30 1  
    35   13   31 1  
    36   14   32 1  
    37   15   33 1  
    38   16   34 1  
    39   17   35 1  
    40   24   36 1  
    41   25   37 1  
    42   25   38 1  
    43    7   39 1  
@<TRIPOS>SUBSTRUCTURE
     1 SUB1        1 GROUP

