1tvo_ligand
  -I-interpret- 

 39 43  0  0  0  0  0  0  0  0999 V2000
   11.5040   -5.7240   14.4460 C   0  0  0  0  0
   11.1560   -5.2580   15.7780 C   0  0  0  0  0
    9.8050   -4.9890   16.0940 N   0  0  0  0  0
    8.7110   -5.1280   15.2100 C   0  0  0  0  0
    9.0180   -5.5610   13.8530 C   0  0  0  0  0
   10.4020   -5.8570   13.4960 C   0  0  0  0  0
    9.3480   -4.5910   17.4250 N   0  0  0  0  0
    7.9410   -4.5200   17.3180 C   0  0  0  0  0
    7.5010   -4.8360   15.9620 C   0  0  0  0  0
    6.1390   -4.8200   15.4290 C   0  0  0  0  0
    7.2430   -4.1580   18.5460 C   0  0  0  0  0
    7.8090   -3.1670   19.4580 C   0  0  0  0  0
    7.0640   -2.6020   20.5780 C   0  0  0  0  0
    5.6990   -3.0090   20.8540 C   0  0  0  0  0
    5.1220   -4.0260   19.9930 C   0  0  0  0  0
    5.8900   -4.5790   18.8870 C   0  0  0  0  0
    5.2240   -3.6860   15.6090 C   0  0  0  0  0
    3.7830   -3.7150   15.4050 C   0  0  0  0  0
    3.0980   -4.9090   14.9750 C   0  0  0  0  0
    3.9300   -6.0350   14.7410 N   0  0  0  0  0
    5.5090   -6.0060   14.9660 N   0  0  0  0  0
    2.7430   -2.7440   15.6320 C   0  0  0  0  0
    1.4710   -3.2920   15.3700 N   0  0  0  0  0
    1.7120   -4.6510   14.9570 N   0  0  0  0  0
    2.9010   -1.4330   16.1170 N   0  0  0  0  0
   12.5259   -5.9601   14.1722 H   0  0  0  0  0
   11.9287   -5.1175   16.5252 H   0  0  0  0  0
    8.2281   -5.6621   13.1175 H   0  0  0  0  0
   10.6206   -6.1882   12.4873 H   0  0  0  0  0
    8.8285   -2.8365   19.2952 H   0  0  0  0  0
    7.5388   -1.8649   21.2154 H   0  0  0  0  0
    5.1334   -2.5721   21.6690 H   0  0  0  0  0
    4.1123   -4.3758   20.1752 H   0  0  0  0  0
    5.4281   -5.3499   18.2809 H   0  0  0  0  0
    5.6600   -2.7440   15.9214 H   0  0  0  0  0
    0.9843   -5.3292   14.6899 H   0  0  0  0  0
    2.0776   -0.8263   16.2390 H   0  0  0  0  0
    3.8401   -1.0798   16.3501 H   0  0  0  0  0
    9.9250   -4.4036   18.2574 H   0  0  0  0  0
  1  2  4  0  0  0
  1  6  4  0  0  0
  2  3  4  0  0  0
  3  4  4  0  0  0
  3  7  1  0  0  0
  4  5  4  0  0  0
  4  9  1  0  0  0
  5  6  4  0  0  0
  7  8  1  0  0  0
  8  9  2  0  0  0
  8 11  1  0  0  0
  9 10  1  0  0  0
 10 17  4  0  0  0
 10 21  4  0  0  0
 11 12  4  0  0  0
 11 16  4  0  0  0
 12 13  4  0  0  0
 13 14  4  0  0  0
 14 15  4  0  0  0
 15 16  4  0  0  0
 17 18  4  0  0  0
 18 19  4  0  0  0
 18 22  1  0  0  0
 19 20  4  0  0  0
 19 24  1  0  0  0
 20 21  4  0  0  0
 22 23  2  0  0  0
 22 25  1  0  0  0
 23 24  1  0  0  0
  1 26  1  0  0  0
  2 27  1  0  0  0
  5 28  1  0  0  0
  6 29  1  0  0  0
 12 30  1  0  0  0
 13 31  1  0  0  0
 14 32  1  0  0  0
 15 33  1  0  0  0
 16 34  1  0  0  0
 17 35  1  0  0  0
 24 36  1  0  0  0
 25 37  1  0  0  0
 25 38  1  0  0  0
  7 39  1  0  0  0
M  END
$$$$
