1g4j_ligand
  -I-interpret- 

 34 35  0  0  0  0  0  0  0  0999 V2000
   -2.7356    3.4814   14.6188 H   0  0  0  0  0
   -3.5772    1.5341   15.8822 H   0  0  0  0  0
   -3.7910    3.4140   14.8570 C   0  0  0  0  0
   -4.2600    2.3160   15.5700 C   0  0  0  0  0
   -5.6410    2.2290   15.8850 C   0  0  0  0  0
   -6.4870    3.2450   15.4460 C   0  0  0  0  0
   -5.9900    4.3270   14.7320 C   0  0  0  0  0
   -4.6480    4.4260   14.4440 C   0  0  0  0  0
   -4.1170    5.6280   13.7280 C   0  0  0  0  0
   -4.9540    6.4720   13.4230 O   0  0  0  0  0
   -2.7550    5.8620   13.4360 N   0  0  0  0  0
   -2.3840    6.7140   12.3150 C   0  0  0  0  0
   -6.2020    0.8280   16.8390 S   0  0  0  0  0
   -5.7890   -0.5940   16.0600 N   0  0  0  0  0
   -7.6480    1.0770   16.9330 O   0  0  0  0  0
   -5.5440    1.0340   18.1350 O   0  0  0  0  0
   -1.3870    7.6740   12.6900 C   0  0  0  0  0
   -1.5660    8.3690   13.9310 C   0  0  0  0  0
   -0.5680    9.3310   14.3390 C   0  0  0  0  0
    0.5830    9.5770   13.5040 C   0  0  0  0  0
    0.7500    8.8730   12.2650 C   0  0  0  0  0
   -0.2250    7.9230   11.8510 C   0  0  0  0  0
   -7.5473    3.1901   15.6648 H   0  0  0  0  0
   -6.6678    5.1038   14.3971 H   0  0  0  0  0
   -2.0443    5.4418   14.0002 H   0  0  0  0  0
   -3.2782    7.2477   11.9608 H   0  0  0  0  0
   -1.9872    6.0851   11.5044 H   0  0  0  0  0
   -6.0344   -1.4822   16.4687 H   0  0  0  0  0
   -2.6310    8.1410   14.7120 F   0  0  0  0  0
   -0.7120    9.9940   15.4950 F   0  0  0  0  0
    1.5030   10.4710   13.8910 F   0  0  0  0  0
    1.8200    9.1010   11.4910 F   0  0  0  0  0
   -0.0430    7.2770   10.6910 F   0  0  0  0  0
   -5.2987   -0.5628   15.1890 H   0  0  0  0  0
  3  8  4  0  0  0
  3  4  4  0  0  0
  4  5  4  0  0  0
  5 13  1  0  0  0
  5  6  4  0  0  0
  6  7  4  0  0  0
  7  8  4  0  0  0
  8  9  1  0  0  0
  9 11  1  0  0  0
  9 10  2  0  0  0
 11 12  1  0  0  0
 12 17  1  0  0  0
 17 22  4  0  0  0
 17 18  4  0  0  0
 18 19  4  0  0  0
 19 20  4  0  0  0
 20 21  4  0  0  0
 21 22  4  0  0  0
 13 16  2  0  0  0
 13 15  2  0  0  0
 13 14  1  0  0  0
  3  1  1  0  0  0
  4  2  1  0  0  0
  6 23  1  0  0  0
  7 24  1  0  0  0
 11 25  1  0  0  0
 12 26  1  0  0  0
 12 27  1  0  0  0
 14 28  1  0  0  0
 20 31  1  0  0  0
 21 32  1  0  0  0
 19 30  1  0  0  0
 18 29  1  0  0  0
 22 33  1  0  0  0
 14 34  1  0  0  0
M  END
$$$$
