### 
### Created by X-TOOL on Mon Oct 24 22:50:51 2005
### 

@<TRIPOS>MOLECULE
1g4j_ligand
   34    35     1     0     0
SMALL
GAST_HUCK


@<TRIPOS>ATOM
      1 H31        -2.7356    3.4814   14.6188 H         1 SUB1        0.067
      2 H41        -3.5772    1.5341   15.8822 H         1 SUB1        0.065
      3 C01        -3.7910    3.4140   14.8570 C.ar      1 SUB1       -0.040
      4 C02        -4.2600    2.3160   15.5700 C.ar      1 SUB1       -0.030
      5 C03        -5.6410    2.2290   15.8850 C.ar      1 SUB1        0.112
      6 C04        -6.4870    3.2450   15.4460 C.ar      1 SUB1       -0.030
      7 C05        -5.9900    4.3270   14.7320 C.ar      1 SUB1       -0.040
      8 C06        -4.6480    4.4260   14.4440 C.ar      1 SUB1        0.050
      9 C07        -4.1170    5.6280   13.7280 C.2       1 SUB1        0.206
     10 O08        -4.9540    6.4720   13.4230 O.2       1 SUB1       -0.384
     11 N09        -2.7550    5.8620   13.4360 N.am      1 SUB1       -0.277
     12 C10        -2.3840    6.7140   12.3150 C.3       1 SUB1        0.062
     13 S11        -6.2020    0.8280   16.8390 S.o2      1 SUB1        0.068
     14 NP2        -5.7890   -0.5940   16.0600 N.am      1 SUB1       -0.261
     15 O13        -7.6480    1.0770   16.9330 O.2       1 SUB1       -0.150
     16 O14        -5.5440    1.0340   18.1350 O.2       1 SUB1       -0.150
     17 C15        -1.3870    7.6740   12.6900 C.ar      1 SUB1        0.039
     18 C16        -1.5660    8.3690   13.9310 C.ar      1 SUB1        0.161
     19 C17        -0.5680    9.3310   14.3390 C.ar      1 SUB1        0.186
     20 C18         0.5830    9.5770   13.5040 C.ar      1 SUB1        0.187
     21 C19         0.7500    8.8730   12.2650 C.ar      1 SUB1        0.186
     22 C20        -0.2250    7.9230   11.8510 C.ar      1 SUB1        0.161
     23 H61        -7.5473    3.1901   15.6648 H         1 SUB1        0.065
     24 H71        -6.6678    5.1038   14.3971 H         1 SUB1        0.067
     25 H111       -2.0443    5.4418   14.0002 H         1 SUB1        0.187
     26 H121       -3.2782    7.2477   11.9608 H         1 SUB1        0.066
     27 H122       -1.9872    6.0851   11.5044 H         1 SUB1        0.066
     28 H141       -6.0344   -1.4822   16.4687 H         1 SUB1        0.163
     29 F21        -2.6310    8.1410   14.7120 F         1 SUB1       -0.195
     30 F22        -0.7120    9.9940   15.4950 F         1 SUB1       -0.191
     31 F23         1.5030   10.4710   13.8910 F         1 SUB1       -0.193
     32 F24         1.8200    9.1010   11.4910 F         1 SUB1       -0.191
     33 F25        -0.0430    7.2770   10.6910 F         1 SUB1       -0.195
     34 H142       -5.2987   -0.5628   15.1890 H         1 SUB1        0.163
@<TRIPOS>BOND
     1    3    8 ar 
     2    3    4 ar 
     3    4    5 ar 
     4    5   13 1  
     5    5    6 ar 
     6    6    7 ar 
     7    7    8 ar 
     8    8    9 1  
     9    9   11 am 
    10    9   10 2  
    11   11   12 1  
    12   12   17 1  
    13   17   22 ar 
    14   17   18 ar 
    15   18   19 ar 
    16   19   20 ar 
    17   20   21 ar 
    18   21   22 ar 
    19   13   16 2  
    20   13   15 2  
    21   13   14 1  
    22    3    1 1  
    23    4    2 1  
    24    6   23 1  
    25    7   24 1  
    26   11   25 1  
    27   12   26 1  
    28   12   27 1  
    29   14   28 1  
    30   20   31 1  
    31   21   32 1  
    32   19   30 1  
    33   18   29 1  
    34   22   33 1  
    35   14   34 1  
@<TRIPOS>SUBSTRUCTURE
     1 SUB1        1 GROUP

