### 
### Created by X-TOOL on Tue Oct 25 01:37:00 2005
### 

@<TRIPOS>MOLECULE
1os5_ligand
   72    75     1     0     0
SMALL
GAST_HUCK


@<TRIPOS>ATOM
      1 O4         41.6920   11.1980   61.0210 O.3       1 SUB1       -0.338
      2 C23        41.6830   11.9680   59.8800 C.ar      1 SUB1        0.080
      3 C20        42.8900   12.3250   59.2750 C.ar      1 SUB1       -0.040
      4 C17        42.8870   13.1430   58.1400 C.ar      1 SUB1       -0.069
      5 C29        41.6770   13.6050   57.6140 C.ar      1 SUB1       -0.054
      6 C14        40.4700   13.2400   58.2270 C.ar      1 SUB1       -0.069
      7 C25        40.4700   12.4230   59.3600 C.ar      1 SUB1       -0.040
      8 C8         41.6750   14.4660   56.4120 C.3       1 SUB1       -0.021
      9 C7         41.3870   13.6910   55.1110 C.3       1 SUB1       -0.009
     10 C3         41.0910   14.6110   53.8910 C.3       1 SUB1        0.115
     11 O2         40.8140   13.7050   52.7650 O.3       1 SUB1       -0.276
     12 C1         41.8360   12.9630   52.2500 C.2       1 SUB1        0.234
     13 O1         41.6650   11.9290   51.5950 O.2       1 SUB1       -0.388
     14 C6         43.2360   13.4350   52.5240 C.2       1 SUB1        0.119
     15 S1         44.6280   12.4690   52.0190 S.3       1 SUB1       -0.051
     16 C21        45.1900   13.2120   50.5170 C.ar      1 SUB1        0.033
     17 C24        44.1960   13.7390   49.6930 C.ar      1 SUB1       -0.021
     18 C12        44.5250   14.3180   48.4780 C.ar      1 SUB1        0.003
     19 C2         45.8650   14.4040   48.0830 C.ar      1 SUB1        0.062
     20 N1         46.1870   14.9380   46.9070 N.pl3     1 SUB1       -0.336
     21 C15        46.8660   13.8810   48.9010 C.ar      1 SUB1       -0.037
     22 C18        46.5590   13.2990   50.1370 C.ar      1 SUB1       -0.061
     23 C26        47.6760   12.8140   51.0010 C.3       1 SUB1       -0.066
     24 C10        47.6920   13.5930   52.3300 C.3       1 SUB1       -0.095
     25 C27        49.0390   13.0360   50.3130 C.3       1 SUB1       -0.095
     26 C9         47.5430   11.3170   51.3090 C.3       1 SUB1       -0.095
     27 C11        43.4680   14.9260   47.6680 C.3       1 SUB1       -0.018
     28 C5         43.4340   14.6100   53.1600 C.2       1 SUB1        0.108
     29 O3         44.6790   15.0720   53.3100 O.3       1 SUB1       -0.320
     30 C4         42.2820   15.5390   53.4900 C.3       1 SUB1        0.051
     31 C22        39.8380   15.5100   54.1210 C.3       1 SUB1       -0.005
     32 C13        38.5880   14.7940   54.6730 C.3       1 SUB1       -0.047
     33 C28        37.3830   15.6100   54.1610 C.3       1 SUB1       -0.053
     34 C16        37.8970   16.5730   53.0530 C.3       1 SUB1       -0.053
     35 C19        39.3830   16.2610   52.8480 C.3       1 SUB1       -0.047
     36 H11        40.7879   11.0424   61.3084 H         1 SUB1        0.246
     37 H31        43.8270   11.9970   59.7010 H         1 SUB1        0.052
     38 H41        43.8190   13.3800   57.6450 H         1 SUB1        0.053
     39 H61        39.5330   13.5710   57.8060 H         1 SUB1        0.053
     40 H71        39.5390   12.1890   59.8610 H         1 SUB1        0.052
     41 H81        40.9210   15.2420   56.5400 H         1 SUB1        0.041
     42 H82        42.6520   14.9390   56.3230 H         1 SUB1        0.041
     43 H91        42.2540   13.0760   54.8760 H         1 SUB1        0.032
     44 H92        40.5320   13.0290   55.2680 H         1 SUB1        0.032
     45 H171       43.1550   13.6700   49.9890 H         1 SUB1        0.057
     46 H201       47.1290   15.0000   46.6240 H         1 SUB1        0.170
     47 H202       45.4910   15.1420   46.2500 H         1 SUB1        0.170
     48 H211       47.8930   13.9500   48.5810 H         1 SUB1        0.063
     49 H241       48.6390   13.4080   52.8360 H         1 SUB1        0.010
     50 H242       46.8710   13.2530   52.9540 H         1 SUB1        0.010
     51 H243       47.5900   14.6590   52.1290 H         1 SUB1        0.010
     52 H251       49.8230   12.6330   50.9470 H         1 SUB1        0.010
     53 H252       49.2050   14.1010   50.1610 H         1 SUB1        0.010
     54 H253       49.0560   12.5220   49.3480 H         1 SUB1        0.010
     55 H261       48.4940   10.9430   51.6930 H         1 SUB1        0.010
     56 H262       47.2860   10.7720   50.3960 H         1 SUB1        0.010
     57 H263       46.7690   11.1750   52.0560 H         1 SUB1        0.010
     58 H271       42.5100   14.7550   48.1480 H         1 SUB1        0.045
     59 H272       43.4800   14.4710   46.6820 H         1 SUB1        0.045
     60 H273       43.6510   15.9950   47.5850 H         1 SUB1        0.045
     61 H291       44.6538   15.9147   53.7805 H         1 SUB1        0.258
     62 H301       42.0200   16.1260   52.6090 H         1 SUB1        0.054
     63 H302       42.5340   16.2070   54.3110 H         1 SUB1        0.054
     64 H311       40.1190   16.2650   54.8490 H         1 SUB1        0.033
     65 H321       38.5390   13.7690   54.3080 H         1 SUB1        0.027
     66 H322       38.6030   14.7940   55.7640 H         1 SUB1        0.027
     67 H331       36.9610   16.1910   54.9800 H         1 SUB1        0.026
     68 H332       36.6210   14.9440   53.7530 H         1 SUB1        0.026
     69 H341       37.7860   17.6050   53.3800 H         1 SUB1        0.026
     70 H342       37.3420   16.4230   52.1270 H         1 SUB1        0.026
     71 H351       39.9510   17.1840   52.7310 H         1 SUB1        0.027
     72 H352       39.5210   15.6310   51.9690 H         1 SUB1        0.027
@<TRIPOS>BOND
     1    1    2 1  
     2    1   36 1  
     3    2    3 ar 
     4    2    7 ar 
     5    3    4 ar 
     6    3   37 1  
     7    4    5 ar 
     8    4   38 1  
     9    5    6 ar 
    10    5    8 1  
    11    6    7 ar 
    12    6   39 1  
    13    7   40 1  
    14    8    9 1  
    15    8   41 1  
    16    8   42 1  
    17    9   10 1  
    18    9   43 1  
    19    9   44 1  
    20   10   11 1  
    21   10   30 1  
    22   10   31 1  
    23   11   12 1  
    24   12   13 2  
    25   12   14 1  
    26   14   15 1  
    27   14   28 2  
    28   15   16 1  
    29   16   17 ar 
    30   16   22 ar 
    31   17   18 ar 
    32   17   45 1  
    33   18   19 ar 
    34   18   27 1  
    35   19   20 1  
    36   19   21 ar 
    37   20   46 1  
    38   20   47 1  
    39   21   22 ar 
    40   21   48 1  
    41   22   23 1  
    42   23   24 1  
    43   23   25 1  
    44   23   26 1  
    45   24   49 1  
    46   24   50 1  
    47   24   51 1  
    48   25   52 1  
    49   25   53 1  
    50   25   54 1  
    51   26   55 1  
    52   26   56 1  
    53   26   57 1  
    54   27   58 1  
    55   27   59 1  
    56   27   60 1  
    57   28   29 1  
    58   28   30 1  
    59   29   61 1  
    60   30   62 1  
    61   30   63 1  
    62   31   32 1  
    63   31   35 1  
    64   31   64 1  
    65   32   33 1  
    66   32   65 1  
    67   32   66 1  
    68   33   34 1  
    69   33   67 1  
    70   33   68 1  
    71   34   35 1  
    72   34   69 1  
    73   34   70 1  
    74   35   71 1  
    75   35   72 1  
@<TRIPOS>SUBSTRUCTURE
     1 SUB1        1 GROUP

