1os5_ligand
  -I-interpret- 

 72 75  0  0  0  0  0  0  0  0999 V2000
   41.6920   11.1980   61.0210 O   0  0  0  0  0
   41.6830   11.9680   59.8800 C   0  0  0  0  0
   42.8900   12.3250   59.2750 C   0  0  0  0  0
   42.8870   13.1430   58.1400 C   0  0  0  0  0
   41.6770   13.6050   57.6140 C   0  0  0  0  0
   40.4700   13.2400   58.2270 C   0  0  0  0  0
   40.4700   12.4230   59.3600 C   0  0  0  0  0
   41.6750   14.4660   56.4120 C   0  0  0  0  0
   41.3870   13.6910   55.1110 C   0  0  0  0  0
   41.0910   14.6110   53.8910 C   0  0  0  0  0
   40.8140   13.7050   52.7650 O   0  0  0  0  0
   41.8360   12.9630   52.2500 C   0  0  0  0  0
   41.6650   11.9290   51.5950 O   0  0  0  0  0
   43.2360   13.4350   52.5240 C   0  0  0  0  0
   44.6280   12.4690   52.0190 S   0  0  0  0  0
   45.1900   13.2120   50.5170 C   0  0  0  0  0
   44.1960   13.7390   49.6930 C   0  0  0  0  0
   44.5250   14.3180   48.4780 C   0  0  0  0  0
   45.8650   14.4040   48.0830 C   0  0  0  0  0
   46.1870   14.9380   46.9070 N   0  0  0  0  0
   46.8660   13.8810   48.9010 C   0  0  0  0  0
   46.5590   13.2990   50.1370 C   0  0  0  0  0
   47.6760   12.8140   51.0010 C   0  0  0  0  0
   47.6920   13.5930   52.3300 C   0  0  0  0  0
   49.0390   13.0360   50.3130 C   0  0  0  0  0
   47.5430   11.3170   51.3090 C   0  0  0  0  0
   43.4680   14.9260   47.6680 C   0  0  0  0  0
   43.4340   14.6100   53.1600 C   0  0  0  0  0
   44.6790   15.0720   53.3100 O   0  0  0  0  0
   42.2820   15.5390   53.4900 C   0  0  0  0  0
   39.8380   15.5100   54.1210 C   0  0  0  0  0
   38.5880   14.7940   54.6730 C   0  0  0  0  0
   37.3830   15.6100   54.1610 C   0  0  0  0  0
   37.8970   16.5730   53.0530 C   0  0  0  0  0
   39.3830   16.2610   52.8480 C   0  0  0  0  0
   40.7879   11.0424   61.3084 H   0  0  0  0  0
   43.8270   11.9970   59.7010 H   0  0  0  0  0
   43.8190   13.3800   57.6450 H   0  0  0  0  0
   39.5330   13.5710   57.8060 H   0  0  0  0  0
   39.5390   12.1890   59.8610 H   0  0  0  0  0
   40.9210   15.2420   56.5400 H   0  0  0  0  0
   42.6520   14.9390   56.3230 H   0  0  0  0  0
   42.2540   13.0760   54.8760 H   0  0  0  0  0
   40.5320   13.0290   55.2680 H   0  0  0  0  0
   43.1550   13.6700   49.9890 H   0  0  0  0  0
   47.1290   15.0000   46.6240 H   0  0  0  0  0
   45.4910   15.1420   46.2500 H   0  0  0  0  0
   47.8930   13.9500   48.5810 H   0  0  0  0  0
   48.6390   13.4080   52.8360 H   0  0  0  0  0
   46.8710   13.2530   52.9540 H   0  0  0  0  0
   47.5900   14.6590   52.1290 H   0  0  0  0  0
   49.8230   12.6330   50.9470 H   0  0  0  0  0
   49.2050   14.1010   50.1610 H   0  0  0  0  0
   49.0560   12.5220   49.3480 H   0  0  0  0  0
   48.4940   10.9430   51.6930 H   0  0  0  0  0
   47.2860   10.7720   50.3960 H   0  0  0  0  0
   46.7690   11.1750   52.0560 H   0  0  0  0  0
   42.5100   14.7550   48.1480 H   0  0  0  0  0
   43.4800   14.4710   46.6820 H   0  0  0  0  0
   43.6510   15.9950   47.5850 H   0  0  0  0  0
   44.6538   15.9147   53.7805 H   0  0  0  0  0
   42.0200   16.1260   52.6090 H   0  0  0  0  0
   42.5340   16.2070   54.3110 H   0  0  0  0  0
   40.1190   16.2650   54.8490 H   0  0  0  0  0
   38.5390   13.7690   54.3080 H   0  0  0  0  0
   38.6030   14.7940   55.7640 H   0  0  0  0  0
   36.9610   16.1910   54.9800 H   0  0  0  0  0
   36.6210   14.9440   53.7530 H   0  0  0  0  0
   37.7860   17.6050   53.3800 H   0  0  0  0  0
   37.3420   16.4230   52.1270 H   0  0  0  0  0
   39.9510   17.1840   52.7310 H   0  0  0  0  0
   39.5210   15.6310   51.9690 H   0  0  0  0  0
  1  2  1  0  0  0
  1 36  1  0  0  0
  2  3  4  0  0  0
  2  7  4  0  0  0
  3  4  4  0  0  0
  3 37  1  0  0  0
  4  5  4  0  0  0
  4 38  1  0  0  0
  5  6  4  0  0  0
  5  8  1  0  0  0
  6  7  4  0  0  0
  6 39  1  0  0  0
  7 40  1  0  0  0
  8  9  1  0  0  0
  8 41  1  0  0  0
  8 42  1  0  0  0
  9 10  1  0  0  0
  9 43  1  0  0  0
  9 44  1  0  0  0
 10 11  1  0  0  0
 10 30  1  0  0  0
 10 31  1  0  0  0
 11 12  1  0  0  0
 12 13  2  0  0  0
 12 14  1  0  0  0
 14 15  1  0  0  0
 14 28  2  0  0  0
 15 16  1  0  0  0
 16 17  4  0  0  0
 16 22  4  0  0  0
 17 18  4  0  0  0
 17 45  1  0  0  0
 18 19  4  0  0  0
 18 27  1  0  0  0
 19 20  1  0  0  0
 19 21  4  0  0  0
 20 46  1  0  0  0
 20 47  1  0  0  0
 21 22  4  0  0  0
 21 48  1  0  0  0
 22 23  1  0  0  0
 23 24  1  0  0  0
 23 25  1  0  0  0
 23 26  1  0  0  0
 24 49  1  0  0  0
 24 50  1  0  0  0
 24 51  1  0  0  0
 25 52  1  0  0  0
 25 53  1  0  0  0
 25 54  1  0  0  0
 26 55  1  0  0  0
 26 56  1  0  0  0
 26 57  1  0  0  0
 27 58  1  0  0  0
 27 59  1  0  0  0
 27 60  1  0  0  0
 28 29  1  0  0  0
 28 30  1  0  0  0
 29 61  1  0  0  0
 30 62  1  0  0  0
 30 63  1  0  0  0
 31 32  1  0  0  0
 31 35  1  0  0  0
 31 64  1  0  0  0
 32 33  1  0  0  0
 32 65  1  0  0  0
 32 66  1  0  0  0
 33 34  1  0  0  0
 33 67  1  0  0  0
 33 68  1  0  0  0
 34 35  1  0  0  0
 34 69  1  0  0  0
 34 70  1  0  0  0
 35 71  1  0  0  0
 35 72  1  0  0  0
M  END
$$$$
