### 
### Created by X-TOOL on Tue Oct 25 00:19:36 2005
### 

@<TRIPOS>MOLECULE
1cet_ligand
   49    50     1     0     0
SMALL
GAST_HUCK


@<TRIPOS>ATOM
      1 N1         35.7010   11.6500   16.1060 N.ar      1 SUB1       -0.283
      2 C1         35.1830   10.5030   16.5910 C.ar      1 SUB1        0.027
      3 C2         34.8220   10.3740   17.9260 C.ar      1 SUB1        0.017
      4 C3         35.0150   11.4690   18.8760 C.ar      1 SUB1        0.030
      5 C4         35.5920   12.7270   18.3580 C.ar      1 SUB1        0.052
      6 C5         35.8420   13.9310   19.1500 C.ar      1 SUB1       -0.037
      7 C6         36.3770   15.0900   18.5720 C.ar      1 SUB1       -0.037
      8 C7         36.6750   15.0930   17.1700 C.ar      1 SUB1        0.052
      9 C8         36.4550   13.9680   16.3590 C.ar      1 SUB1       -0.019
     10 C9         35.9160   12.7830   16.9300 C.ar      1 SUB1        0.062
     11 N2         34.6720   11.3700   20.1980 N.4       1 SUB1        0.384
     12 C10        34.2140   10.1460   20.9380 C.3       1 SUB1       -0.027
     13 C11        35.3120    9.0730   20.8840 C.3       1 SUB1       -0.021
     14 C12        36.6190    9.3990   21.5830 C.3       1 SUB1       -0.036
     15 C13        37.7060    8.4520   21.0990 C.3       1 SUB1       -0.001
     16 N3         37.4150    7.0040   21.3790 N.3       1 SUB1       -0.303
     17 C14        38.2660    6.0490   20.5130 C.3       1 SUB1       -0.004
     18 C15        38.0790    4.5480   20.7070 C.3       1 SUB1       -0.052
     19 C16        37.3140    6.6910   22.8460 C.3       1 SUB1       -0.004
     20 C17        38.6200    6.5420   23.5540 C.3       1 SUB1       -0.052
     21 C18        33.8020   10.5100   22.3570 C.3       1 SUB1       -0.034
     22 CL         37.2970   16.5300   16.4670 Cl        1 SUB1       -0.066
     23 H21        35.0450    9.6610   15.9224 H         1 SUB1        0.088
     24 H31        34.3882    9.4424   18.2709 H         1 SUB1        0.084
     25 H61        35.6080   13.9266   20.2084 H         1 SUB1        0.068
     26 H71        36.5627   15.9708   19.1759 H         1 SUB1        0.069
     27 H91        36.6950   14.0030   15.3025 H         1 SUB1        0.070
     28 H111       33.9269   12.0378   20.3206 H         1 SUB1        0.153
     29 H112       35.4889   11.6822   20.6992 H         1 SUB1        0.153
     30 H121       33.3268    9.7442   20.4266 H         1 SUB1        0.069
     31 H131       35.5393    8.8817   19.8249 H         1 SUB1        0.031
     32 H132       34.9076    8.1589   21.3432 H         1 SUB1        0.031
     33 H141       36.4914    9.2851   22.6696 H         1 SUB1        0.028
     34 H142       36.9080   10.4354   21.3543 H         1 SUB1        0.028
     35 H151       38.6481    8.7199   21.5996 H         1 SUB1        0.043
     36 H152       37.8191    8.5796   20.0123 H         1 SUB1        0.043
     37 H171       39.3227    6.2760   20.7176 H         1 SUB1        0.042
     38 H172       38.0400    6.2733   19.4601 H         1 SUB1        0.042
     39 H181       38.7488    4.0039   20.0249 H         1 SUB1        0.024
     40 H182       37.0353    4.2773   20.4892 H         1 SUB1        0.024
     41 H183       38.3180    4.2800   21.7467 H         1 SUB1        0.024
     42 H191       36.7577    5.7484   22.9557 H         1 SUB1        0.042
     43 H192       36.7550    7.5052   23.3303 H         1 SUB1        0.042
     44 H201       38.4381    6.3155   24.6149 H         1 SUB1        0.024
     45 H202       39.1907    7.4788   23.4717 H         1 SUB1        0.024
     46 H203       39.1934    5.7220   23.0971 H         1 SUB1        0.024
     47 H211       33.4694    9.6046   22.8859 H         1 SUB1        0.027
     48 H212       32.9787   11.2388   22.3243 H         1 SUB1        0.027
     49 H213       34.6600   10.9496   22.8866 H         1 SUB1        0.027
@<TRIPOS>BOND
     1    1   10 ar 
     2    1    2 ar 
     3    2    3 ar 
     4    3    4 ar 
     5    4   11 1  
     6    4    5 ar 
     7    5   10 ar 
     8    5    6 ar 
     9    6    7 ar 
    10    7    8 ar 
    11    8    9 ar 
    12    9   10 ar 
    13   11   12 1  
    14   12   21 1  
    15   12   13 1  
    16   13   14 1  
    17   14   15 1  
    18   15   16 1  
    19   16   19 1  
    20   16   17 1  
    21   17   18 1  
    22   19   20 1  
    23    8   22 1  
    24    2   23 1  
    25    3   24 1  
    26    6   25 1  
    27    7   26 1  
    28    9   27 1  
    29   11   28 1  
    30   11   29 1  
    31   12   30 1  
    32   13   31 1  
    33   13   32 1  
    34   14   33 1  
    35   14   34 1  
    36   15   35 1  
    37   15   36 1  
    38   17   37 1  
    39   17   38 1  
    40   18   39 1  
    41   18   40 1  
    42   18   41 1  
    43   19   42 1  
    44   19   43 1  
    45   20   44 1  
    46   20   45 1  
    47   20   46 1  
    48   21   47 1  
    49   21   48 1  
    50   21   49 1  
@<TRIPOS>SUBSTRUCTURE
     1 SUB1        1 GROUP

