1c1v_ligand
  -I-interpret- 

 43 46  0  0  0  0  0  0  0  0999 V2000
   12.0725   -9.7018   22.3744 H   0  0  0  0  0
   13.9326   -9.9086   20.6797 H   0  0  0  0  0
   12.5245  -13.8852   23.3321 H   0  0  0  0  0
   16.0423  -15.7641   20.0071 H   0  0  0  0  0
   17.3698  -14.6383   20.4508 H   0  0  0  0  0
    9.7267  -12.9136   24.7384 H   0  0  0  0  0
   10.6944  -13.6594   23.4384 H   0  0  0  0  0
   11.5768   -9.8630   24.5412 H   0  0  0  0  0
   10.2647  -10.7041   25.4093 H   0  0  0  0  0
   14.4052  -15.0597   21.9257 H   0  0  0  0  0
   17.6094  -11.0767   14.2979 H   0  0  0  0  0
   17.9407  -11.0721   16.7581 H   0  0  0  0  0
   15.8201  -15.0302   14.5251 H   0  0  0  0  0
   16.0329  -14.0255   11.1428 H   0  0  0  0  0
   16.0422  -14.9504   12.6683 H   0  0  0  0  0
   16.9235  -10.9794   12.7506 H   0  0  0  0  0
   16.5096  -11.7449   11.1932 H   0  0  0  0  0
   15.7388  -15.8613   17.2485 H   0  0  0  0  0
   12.1640  -11.7770   22.9800 C   0  0  0  0  0
   12.5660  -10.6550   22.2230 C   0  0  0  0  0
   13.6090  -10.7610   21.2660 C   0  0  0  0  0
   14.1930  -12.0100   21.1190 C   0  0  0  0  0
   13.7970  -13.0620   21.8470 C   0  0  0  0  0
   12.8100  -13.0040   22.7690 C   0  0  0  0  0
   11.1770  -11.7600   23.9320 C   0  3  0  0  0
   15.3430  -13.7390   20.5970 C   0  0  0  0  0
   16.4040  -14.7280   19.9320 C   0  0  0  0  0
   10.4850  -12.8530   24.0440 N   0  0  0  0  0
   10.9930  -10.7000   24.6810 N   0  0  0  0  0
   15.1600  -12.4460   20.3430 N   0  0  0  0  0
   14.4980  -14.1150   21.5260 N   0  0  0  0  0
   16.6910  -13.0370   14.2030 C   0  0  0  0  0
   17.2910  -11.9340   14.8800 C   0  0  0  0  0
   17.4830  -11.9150   16.2530 C   0  0  0  0  0
   17.0610  -13.0210   16.9290 C   0  0  0  0  0
   16.4840  -14.1050   16.3550 C   0  0  0  0  0
   16.2780  -14.1630   14.9870 C   0  0  0  0  0
   16.5080  -12.9750   12.8200 C   0  3  0  0  0
   16.5740  -14.3440   18.4490 C   0  0  0  0  0
   16.1700  -14.0620   12.1630 N   0  0  0  0  0
   16.6580  -11.8150   12.2100 N   0  0  0  0  0
   17.1100  -13.1940   18.2100 N   0  0  0  0  0
   16.1850  -14.9370   17.3350 N   0  0  0  0  0
 20  1  1  0  0  0
 21  2  1  0  0  0
 24  3  1  0  0  0
 27  4  1  0  0  0
 27  5  1  0  0  0
 28  6  1  0  0  0
 28  7  1  0  0  0
 29  8  1  0  0  0
 29  9  1  0  0  0
 31 10  1  0  0  0
 33 11  1  0  0  0
 34 12  1  0  0  0
 37 13  1  0  0  0
 40 14  1  0  0  0
 40 15  1  0  0  0
 41 16  1  0  0  0
 41 17  1  0  0  0
 43 18  1  0  0  0
 25 19  1  0  0  0
 19 24  4  0  0  0
 19 20  4  0  0  0
 20 21  4  0  0  0
 21 22  4  0  0  0
 22 30  1  0  0  0
 23 22  4  0  0  0
 23 31  1  0  0  0
 24 23  4  0  0  0
 31 26  1  0  0  0
 30 26  2  0  0  0
 26 27  1  0  0  0
 27 39  1  0  0  0
 39 43  1  0  0  0
 39 42  2  0  0  0
 42 35  1  0  0  0
 35 36  4  0  0  0
 35 34  4  0  0  0
 34 33  4  0  0  0
 33 32  4  0  0  0
 32 38  1  0  0  0
 37 32  4  0  0  0
 36 37  4  0  0  0
 43 36  1  0  0  0
 38 40  1  0  0  0
 38 41  1  0  0  0
 25 29  1  0  0  0
 25 28  1  0  0  0
M  END
$$$$
