### 
### Created by X-TOOL on Mon Oct 24 23:43:43 2005
### 

@<TRIPOS>MOLECULE
1c1v_ligand
   43    46     1     0     0
SMALL
GAST_HUCK


@<TRIPOS>ATOM
      1 H201       12.0725   -9.7018   22.3744 H         1 SUB1        0.056
      2 H211       13.9326   -9.9086   20.6797 H         1 SUB1        0.054
      3 H241       12.5245  -13.8852   23.3321 H         1 SUB1        0.059
      4 H271       16.0423  -15.7641   20.0071 H         1 SUB1        0.079
      5 H272       17.3698  -14.6383   20.4508 H         1 SUB1        0.079
      6 H281        9.7267  -12.9136   24.7384 H         1 SUB1        0.192
      7 H282       10.6944  -13.6594   23.4384 H         1 SUB1        0.192
      8 H291       11.5768   -9.8630   24.5412 H         1 SUB1        0.192
      9 H292       10.2647  -10.7041   25.4093 H         1 SUB1        0.192
     10 H311       14.4052  -15.0597   21.9257 H         1 SUB1        0.232
     11 H331       17.6094  -11.0767   14.2979 H         1 SUB1        0.056
     12 H341       17.9407  -11.0721   16.7581 H         1 SUB1        0.054
     13 H371       15.8201  -15.0302   14.5251 H         1 SUB1        0.059
     14 H401       16.0329  -14.0255   11.1428 H         1 SUB1        0.192
     15 H402       16.0422  -14.9504   12.6683 H         1 SUB1        0.192
     16 H411       16.9235  -10.9794   12.7506 H         1 SUB1        0.192
     17 H412       16.5096  -11.7449   11.1932 H         1 SUB1        0.192
     18 H431       15.7388  -15.8613   17.2485 H         1 SUB1        0.232
     19 C1         12.1640  -11.7770   22.9800 C.ar      1 SUB1        0.172
     20 C2         12.5660  -10.6550   22.2230 C.ar      1 SUB1       -0.024
     21 C3         13.6090  -10.7610   21.2660 C.ar      1 SUB1       -0.061
     22 C4         14.1930  -12.0100   21.1190 C.ar      1 SUB1        0.022
     23 C5         13.7970  -13.0620   21.8470 C.ar      1 SUB1        0.083
     24 C6         12.8100  -13.0040   22.7690 C.ar      1 SUB1        0.012
     25 C7         11.1770  -11.7600   23.9320 C.cat     1 SUB1        0.310
     26 C8         15.3430  -13.7390   20.5970 C.2       1 SUB1        0.141
     27 C9         16.4040  -14.7280   19.9320 C.3       1 SUB1        0.111
     28 N1         10.4850  -12.8530   24.0440 N.pl3     1 SUB1       -0.201
     29 N2         10.9930  -10.7000   24.6810 N.pl3     1 SUB1       -0.201
     30 N3         15.1600  -12.4460   20.3430 N.2       1 SUB1       -0.315
     31 N4         14.4980  -14.1150   21.5260 N.pl3     1 SUB1       -0.244
     32 C1'        16.6910  -13.0370   14.2030 C.ar      1 SUB1        0.172
     33 C2'        17.2910  -11.9340   14.8800 C.ar      1 SUB1       -0.024
     34 C3'        17.4830  -11.9150   16.2530 C.ar      1 SUB1       -0.061
     35 C4'        17.0610  -13.0210   16.9290 C.ar      1 SUB1        0.022
     36 C5'        16.4840  -14.1050   16.3550 C.ar      1 SUB1        0.083
     37 C6'        16.2780  -14.1630   14.9870 C.ar      1 SUB1        0.012
     38 C7'        16.5080  -12.9750   12.8200 C.cat     1 SUB1        0.310
     39 C8'        16.5740  -14.3440   18.4490 C.2       1 SUB1        0.141
     40 N1'        16.1700  -14.0620   12.1630 N.pl3     1 SUB1       -0.201
     41 N2'        16.6580  -11.8150   12.2100 N.pl3     1 SUB1       -0.201
     42 N3'        17.1100  -13.1940   18.2100 N.2       1 SUB1       -0.315
     43 N4'        16.1850  -14.9370   17.3350 N.pl3     1 SUB1       -0.244
@<TRIPOS>BOND
     1   20    1 1  
     2   21    2 1  
     3   24    3 1  
     4   27    4 1  
     5   27    5 1  
     6   28    6 1  
     7   28    7 1  
     8   29    8 1  
     9   29    9 1  
    10   31   10 1  
    11   33   11 1  
    12   34   12 1  
    13   37   13 1  
    14   40   14 1  
    15   40   15 1  
    16   41   16 1  
    17   41   17 1  
    18   43   18 1  
    19   25   19 1  
    20   19   24 ar 
    21   19   20 ar 
    22   20   21 ar 
    23   21   22 ar 
    24   22   30 1  
    25   23   22 ar 
    26   23   31 1  
    27   24   23 ar 
    28   31   26 1  
    29   30   26 2  
    30   26   27 1  
    31   27   39 1  
    32   39   43 1  
    33   39   42 2  
    34   42   35 1  
    35   35   36 ar 
    36   35   34 ar 
    37   34   33 ar 
    38   33   32 ar 
    39   32   38 1  
    40   37   32 ar 
    41   36   37 ar 
    42   43   36 1  
    43   38   40 1  
    44   38   41 1  
    45   25   29 1  
    46   25   28 1  
@<TRIPOS>SUBSTRUCTURE
     1 SUB1        1 GROUP

