1pb9_ligand
  -I-interpret- 

 14 14  0  0  0  0  0  0  0  0999 V2000
   23.4730   41.0430   39.0280 O   0  0  0  0  0
   21.9920   38.2960   40.5140 O   0  0  0  0  0
   21.3880   41.8590   40.7910 N   0  3  0  0  0
   23.0850   38.9310   39.7790 N   0  0  0  0  0
   21.4040   40.4890   40.2300 C   0  0  0  0  0
   21.3000   39.3640   41.2040 C   0  0  0  0  0
   22.7620   40.1770   39.6190 C   0  0  0  0  0
   20.4796   42.0402   41.1886 H   0  0  0  0  0
   22.0853   41.9425   41.5141 H   0  0  0  0  0
   21.5670   42.5312   40.0616 H   0  0  0  0  0
   23.9230   38.4884   39.4600 H   0  0  0  0  0
   20.5967   40.4310   39.4852 H   0  0  0  0  0
   20.2466   39.1087   41.3912 H   0  0  0  0  0
   21.7971   39.6228   42.1505 H   0  0  0  0  0
  7  1  2  0  0  0
  4  2  1  0  0  0
  2  6  1  0  0  0
  7  4  1  0  0  0
  7  5  1  0  0  0
  6  5  1  0  0  0
  5  3  1  0  0  0
  3  8  1  0  0  0
  3  9  1  0  0  0
  3 10  1  0  0  0
  4 11  1  0  0  0
  5 12  1  0  0  0
  6 13  1  0  0  0
  6 14  1  0  0  0
M  END
$$$$
