### 
### Created by X-TOOL on Mon Oct 24 22:06:16 2005
### 

@<TRIPOS>MOLECULE
1pb9_ligand
   14    14     1     0     0
SMALL
GAST_HUCK


@<TRIPOS>ATOM
      1 OG         23.4730   41.0430   39.0280 O.2       1 SUB1       -0.391
      2 O          21.9920   38.2960   40.5140 O.3       1 SUB1       -0.248
      3 N          21.3880   41.8590   40.7910 N.4       1 SUB1        0.240
      4 NXT        23.0850   38.9310   39.7790 N.am      1 SUB1       -0.156
      5 CA         21.4040   40.4890   40.2300 C.3       1 SUB1        0.093
      6 CB         21.3000   39.3640   41.2040 C.3       1 SUB1        0.139
      7 C3         22.7620   40.1770   39.6190 C.2       1 SUB1        0.250
      8 H31        20.4796   42.0402   41.1886 H         1 SUB1        0.202
      9 H32        22.0853   41.9425   41.5141 H         1 SUB1        0.202
     10 H33        21.5670   42.5312   40.0616 H         1 SUB1        0.202
     11 H41        23.9230   38.4884   39.4600 H         1 SUB1        0.222
     12 H51        20.5967   40.4310   39.4852 H         1 SUB1        0.112
     13 H61        20.2466   39.1087   41.3912 H         1 SUB1        0.067
     14 H62        21.7971   39.6228   42.1505 H         1 SUB1        0.067
@<TRIPOS>BOND
     1    7    1 2  
     2    4    2 1  
     3    2    6 1  
     4    7    4 am 
     5    7    5 1  
     6    6    5 1  
     7    5    3 1  
     8    3    8 1  
     9    3    9 1  
    10    3   10 1  
    11    4   11 1  
    12    5   12 1  
    13    6   13 1  
    14    6   14 1  
@<TRIPOS>SUBSTRUCTURE
     1 SUB1        1 GROUP

