2iko_ligand
  -I-interpret- 

 45 47  0  0  0  0  0  0  0  0999 V2000
  -10.6750   27.5920  -34.9490 C   0  0  0  0  0
   -9.6280   28.0920  -34.2470 N   0  0  0  0  0
   -9.4740   27.8010  -32.9260 C   0  0  0  0  0
  -10.3490   27.0210  -32.2540 N   0  0  0  0  0
  -11.4310   26.4480  -32.8330 C   0  0  0  0  0
  -11.6750   26.7170  -34.2630 C   0  0  0  0  0
  -10.8030   27.8930  -36.2590 N   0  0  0  0  0
   -8.4280   28.3300  -32.2490 N   0  0  0  0  0
  -12.3320   25.5720  -31.9970 C   0  0  0  0  0
  -11.7550   24.1820  -31.8960 C   0  0  0  0  0
  -13.3060   24.2540  -36.5100 C   0  0  0  0  0
  -12.4060   24.9870  -35.7530 C   0  0  0  0  0
  -12.8070   26.0850  -35.0030 C   0  0  0  0  0
  -14.1460   26.4810  -35.0040 C   0  0  0  0  0
  -15.0620   25.7490  -35.7700 C   0  0  0  0  0
  -14.6460   24.6320  -36.5210 C   0  0  0  0  0
  -15.5390   23.9210  -37.2610 N   0  0  0  0  0
  -14.3550   22.3330  -41.6920 C   0  0  0  0  0
  -14.7750   22.0920  -40.3950 C   0  0  0  0  0
  -14.6630   23.0830  -39.4340 C   0  0  0  0  0
  -14.1300   24.3400  -39.7850 C   0  0  0  0  0
  -13.7210   24.5900  -41.0940 C   0  0  0  0  0
  -13.8320   23.5790  -42.0440 C   0  0  0  0  0
  -14.4690   21.3530  -42.6100 F   0  0  0  0  0
  -15.1600   22.7420  -38.0430 C   0  0  0  0  0
  -13.2040   25.7960  -41.4360 F   0  0  0  0  0
  -10.1148   28.4928  -36.7141 H   0  0  0  0  0
  -11.5879   27.5206  -36.7935 H   0  0  0  0  0
   -8.3141   28.1365  -31.2540 H   0  0  0  0  0
   -7.7537   28.9221  -32.7339 H   0  0  0  0  0
  -13.3144   25.5183  -32.4661 H   0  0  0  0  0
  -12.4172   25.9975  -30.9971 H   0  0  0  0  0
  -11.6649   23.7540  -32.8944 H   0  0  0  0  0
  -10.7707   24.2315  -31.4303 H   0  0  0  0  0
  -12.4139   23.5596  -31.2906 H   0  0  0  0  0
  -12.9696   23.3937  -37.0886 H   0  0  0  0  0
  -11.3561   24.6942  -35.7460 H   0  0  0  0  0
  -14.4717   27.3422  -34.4206 H   0  0  0  0  0
  -16.1102   26.0474  -35.7853 H   0  0  0  0  0
  -16.5136   24.2216  -37.2717 H   0  0  0  0  0
  -15.1942   21.1214  -40.1299 H   0  0  0  0  0
  -14.0373   25.1201  -39.0293 H   0  0  0  0  0
  -13.5088   23.7609  -43.0690 H   0  0  0  0  0
  -16.0476   22.1189  -38.1527 H   0  0  0  0  0
  -14.3477   22.2425  -37.5151 H   0  0  0  0  0
  1  2  4  0  0  0
  6  1  4  0  0  0
  1  7  1  0  0  0
  2  3  4  0  0  0
  4  3  4  0  0  0
  3  8  1  0  0  0
  5  4  4  0  0  0
  6  5  4  0  0  0
  5  9  1  0  0  0
 13  6  1  0  0  0
  9 10  1  0  0  0
 11 12  4  0  0  0
 16 11  4  0  0  0
 12 13  4  0  0  0
 14 13  4  0  0  0
 15 14  4  0  0  0
 16 15  4  0  0  0
 17 16  1  0  0  0
 25 17  1  0  0  0
 19 18  4  0  0  0
 18 23  4  0  0  0
 18 24  1  0  0  0
 20 19  4  0  0  0
 20 21  4  0  0  0
 20 25  1  0  0  0
 21 22  4  0  0  0
 22 23  4  0  0  0
 22 26  1  0  0  0
  7 27  1  0  0  0
  7 28  1  0  0  0
  8 29  1  0  0  0
  8 30  1  0  0  0
  9 31  1  0  0  0
  9 32  1  0  0  0
 10 33  1  0  0  0
 10 34  1  0  0  0
 10 35  1  0  0  0
 11 36  1  0  0  0
 12 37  1  0  0  0
 14 38  1  0  0  0
 15 39  1  0  0  0
 17 40  1  0  0  0
 19 41  1  0  0  0
 21 42  1  0  0  0
 23 43  1  0  0  0
 25 44  1  0  0  0
 25 45  1  0  0  0
M  END
$$$$
