### 
### Created by X-TOOL on Sun Jun  3 11:31:24 2007
### 

@<TRIPOS>MOLECULE
2iko_ligand
   45    47     1     0     0
SMALL
GAST_HUCK


@<TRIPOS>ATOM
      1 C1        -10.6750   27.5920  -34.9490 C.ar      1 SUB1        0.111
      2 N1         -9.6280   28.0920  -34.2470 N.ar      1 SUB1       -0.252
      3 C2         -9.4740   27.8010  -32.9260 C.ar      1 SUB1        0.161
      4 N2        -10.3490   27.0210  -32.2540 N.ar      1 SUB1       -0.274
      5 C3        -11.4310   26.4480  -32.8330 C.ar      1 SUB1        0.023
      6 C4        -11.6750   26.7170  -34.2630 C.ar      1 SUB1        0.032
      7 N3        -10.8030   27.8930  -36.2590 N.pl3     1 SUB1       -0.318
      8 N4         -8.4280   28.3300  -32.2490 N.pl3     1 SUB1       -0.308
      9 C5        -12.3320   25.5720  -31.9970 C.3       1 SUB1       -0.007
     10 C6        -11.7550   24.1820  -31.8960 C.3       1 SUB1       -0.052
     11 C7        -13.3060   24.2540  -36.5100 C.ar      1 SUB1       -0.046
     12 C8        -12.4060   24.9870  -35.7530 C.ar      1 SUB1       -0.070
     13 C9        -12.8070   26.0850  -35.0030 C.ar      1 SUB1       -0.035
     14 C10       -14.1460   26.4810  -35.0040 C.ar      1 SUB1       -0.070
     15 C11       -15.0620   25.7490  -35.7700 C.ar      1 SUB1       -0.046
     16 C12       -14.6460   24.6320  -36.5210 C.ar      1 SUB1        0.038
     17 N5        -15.5390   23.9210  -37.2610 N.pl3     1 SUB1       -0.313
     18 C13       -14.3550   22.3330  -41.6920 C.ar      1 SUB1        0.124
     19 C14       -14.7750   22.0920  -40.3950 C.ar      1 SUB1       -0.029
     20 C15       -14.6630   23.0830  -39.4340 C.ar      1 SUB1       -0.026
     21 C16       -14.1300   24.3400  -39.7850 C.ar      1 SUB1       -0.029
     22 C17       -13.7210   24.5900  -41.0940 C.ar      1 SUB1        0.124
     23 C18       -13.8320   23.5790  -42.0440 C.ar      1 SUB1       -0.002
     24 F1        -14.4690   21.3530  -42.6100 F         1 SUB1       -0.186
     25 C19       -15.1600   22.7420  -38.0430 C.3       1 SUB1        0.056
     26 F2        -13.2040   25.7960  -41.4360 F         1 SUB1       -0.186
     27 H         -10.1148   28.4928  -36.7141 H         1 SUB1        0.181
     28 H         -11.5879   27.5206  -36.7935 H         1 SUB1        0.181
     29 H          -8.3141   28.1365  -31.2540 H         1 SUB1        0.183
     30 H          -7.7537   28.9221  -32.7339 H         1 SUB1        0.183
     31 H         -13.3144   25.5183  -32.4661 H         1 SUB1        0.047
     32 H         -12.4172   25.9975  -30.9971 H         1 SUB1        0.047
     33 H         -11.6649   23.7540  -32.8944 H         1 SUB1        0.026
     34 H         -10.7707   24.2315  -31.4303 H         1 SUB1        0.026
     35 H         -12.4139   23.5596  -31.2906 H         1 SUB1        0.026
     36 H         -12.9696   23.3937  -37.0886 H         1 SUB1        0.051
     37 H         -11.3561   24.6942  -35.7460 H         1 SUB1        0.056
     38 H         -14.4717   27.3422  -34.4206 H         1 SUB1        0.056
     39 H         -16.1102   26.0474  -35.7853 H         1 SUB1        0.051
     40 H         -16.5136   24.2216  -37.2717 H         1 SUB1        0.178
     41 H         -15.1942   21.1214  -40.1299 H         1 SUB1        0.051
     42 H         -14.0373   25.1201  -39.0293 H         1 SUB1        0.051
     43 H         -13.5088   23.7609  -43.0690 H         1 SUB1        0.053
     44 H         -16.0476   22.1189  -38.1527 H         1 SUB1        0.067
     45 H         -14.3477   22.2425  -37.5151 H         1 SUB1        0.067
@<TRIPOS>BOND
     1    1    2 ar 
     2    6    1 ar 
     3    1    7 1  
     4    2    3 ar 
     5    4    3 ar 
     6    3    8 1  
     7    5    4 ar 
     8    6    5 ar 
     9    5    9 1  
    10   13    6 1  
    11    9   10 1  
    12   11   12 ar 
    13   16   11 ar 
    14   12   13 ar 
    15   14   13 ar 
    16   15   14 ar 
    17   16   15 ar 
    18   17   16 1  
    19   25   17 1  
    20   19   18 ar 
    21   18   23 ar 
    22   18   24 1  
    23   20   19 ar 
    24   20   21 ar 
    25   20   25 1  
    26   21   22 ar 
    27   22   23 ar 
    28   22   26 1  
    29    7   27 1  
    30    7   28 1  
    31    8   29 1  
    32    8   30 1  
    33    9   31 1  
    34    9   32 1  
    35   10   33 1  
    36   10   34 1  
    37   10   35 1  
    38   11   36 1  
    39   12   37 1  
    40   14   38 1  
    41   15   39 1  
    42   17   40 1  
    43   19   41 1  
    44   21   42 1  
    45   23   43 1  
    46   25   44 1  
    47   25   45 1  
@<TRIPOS>SUBSTRUCTURE
     1 SUB1        1 GROUP

