2er6_ligand
  -I-interpret- 

127129  0  0  0  0  0  0  0  0999 V2000
   32.1171   -5.2078   -4.8140 H   0  0  0  0  0
   31.0106   -7.0360   -5.6022 H   0  0  0  0  0
   32.5243   -7.9962   -5.4877 H   0  0  0  0  0
   32.7047   -7.9839   -7.7622 H   0  0  0  0  0
   31.1901   -7.0250   -7.8768 H   0  0  0  0  0
   33.9058   -6.1658   -8.3506 H   0  0  0  0  0
   32.3898   -5.2113   -8.4812 H   0  0  0  0  0
   32.7253   -6.0924   -2.9688 H   0  0  0  0  0
   35.4463   -7.1822   -2.7344 H   0  0  0  0  0
   35.8955   -5.5833   -0.8430 H   0  0  0  0  0
   33.7092   -4.7409   -0.7462 H   0  0  0  0  0
   36.0382   -3.5730   -2.7208 H   0  0  0  0  0
   35.8460   -5.0008   -3.7936 H   0  0  0  0  0
   37.2131   -4.9288   -2.6307 H   0  0  0  0  0
   35.8132   -8.3934   -0.9024 H   0  0  0  0  0
   33.3521   -9.3689    0.5162 H   0  0  0  0  0
   34.1325  -11.6878    0.2515 H   0  0  0  0  0
   35.5858  -11.1245   -0.6413 H   0  0  0  0  0
   34.2024  -10.3406   -2.4875 H   0  0  0  0  0
   32.7055  -10.7471   -1.5816 H   0  0  0  0  0
   34.4912   -7.8140    1.9397 H   0  0  0  0  0
   36.8660   -8.8422    3.3830 H   0  0  0  0  0
   36.7304   -6.7225    4.6261 H   0  0  0  0  0
   35.1634   -6.3414    3.8351 H   0  0  0  0  0
   35.9218   -4.2487    2.8520 H   0  0  0  0  0
   37.9976   -7.9252    2.0235 H   0  0  0  0  0
   37.1323   -3.1448    0.9855 H   0  0  0  0  0
   39.2082   -6.8213    0.1570 H   0  0  0  0  0
   38.7749   -4.4313   -0.3631 H   0  0  0  0  0
   34.0778  -10.5493    4.2005 H   0  0  0  0  0
   35.1599  -10.7203    6.5446 H   0  0  0  0  0
   33.2956  -12.0515    5.6761 H   0  0  0  0  0
   34.5355  -13.0921    6.4548 H   0  0  0  0  0
   33.1937  -11.9452    3.1550 H   0  0  0  0  0
   35.6263  -14.8240    5.2295 H   0  0  0  0  0
   33.3116  -13.3289    1.0962 H   0  0  0  0  0
   35.7435  -16.2098    3.1708 H   0  0  0  0  0
   34.5877  -15.4606    1.1031 H   0  0  0  0  0
   36.7082  -11.6559    7.5351 H   0  0  0  0  0
   39.3390  -11.8825    6.3723 H   0  0  0  0  0
   38.7378  -13.2428    8.9705 H   0  0  0  0  0
   38.2994  -11.5023    8.9018 H   0  0  0  0  0
   40.4702  -10.8123    8.8086 H   0  0  0  0  0
   41.0057  -12.2508    7.8756 H   0  0  0  0  0
   40.1875  -13.1723   10.4509 H   0  0  0  0  0
   41.2118  -11.7194   10.7079 H   0  0  0  0  0
   42.6473  -13.2283    8.8657 H   0  0  0  0  0
   41.2413  -13.8649   12.0960 H   0  0  0  0  0
   42.4968  -15.0604   12.5170 H   0  0  0  0  0
   44.2796  -14.8522    9.5457 H   0  0  0  0  0
   44.1095  -15.5845   11.1636 H   0  0  0  0  0
   40.3602  -13.6460    5.7174 H   0  0  0  0  0
   39.2958  -16.3504    6.3966 H   0  0  0  0  0
   40.4044  -16.6106    3.8296 H   0  0  0  0  0
   39.4253  -15.1067    3.7505 H   0  0  0  0  0
   37.4309  -16.2276    4.2912 H   0  0  0  0  0
   38.2996  -17.6506    4.9596 H   0  0  0  0  0
   34.2935   -5.1350   -6.4761 H   0  0  0  0  0
   32.8898   -4.2817   -6.5812 H   0  0  0  0  0
   34.0994   -8.4845    4.6471 H   0  0  0  0  0
   35.6251   -8.6701    5.5770 H   0  0  0  0  0
   33.2910   -5.2060   -6.5530 N   0  3  0  0  0
   32.8050   -5.8600   -5.3720 C   0  0  0  0  0
   33.9550   -6.2230   -4.5050 C   0  0  0  0  0
   35.0930   -6.4100   -5.0360 O   0  0  0  0  0
   32.0700   -7.0810   -5.8950 C   0  0  0  0  0
   32.1920   -7.0710   -7.4250 C   0  0  0  0  0
   32.9830   -5.8700   -7.8300 C   0  0  0  0  0
   33.6640   -6.2890   -3.2520 N   0  0  0  0  0
   34.6320   -6.6340   -2.2380 C   0  0  0  0  0
   33.9930   -7.6640   -1.2870 C   0  0  0  0  0
   32.7650   -7.8040   -1.2290 O   0  0  0  0  0
   35.2880   -5.3470   -1.7290 C   0  0  0  0  0
   34.2910   -4.3840   -1.4070 O   0  0  0  0  0
   36.1580   -4.6640   -2.7940 C   0  0  0  0  0
   34.8370   -8.4880   -0.7070 N   0  0  0  0  0
   34.3970   -9.5500    0.2240 C   0  0  0  0  0
   35.2890   -9.5610    1.4610 C   0  0  0  0  0
   36.1040  -10.4760    1.6510 O   0  0  0  0  0
   34.5220  -10.9280   -0.4420 C   0  0  0  0  0
   33.7520  -11.0340   -1.7620 C   0  0  0  0  0
   33.7760  -12.4480   -2.3570 C   0  0  0  0  0
   32.7840  -13.2490   -2.1580 O   0  0  0  0  0
   34.7900  -12.8380   -3.0540 O   0  5  0  0  0
   35.1440   -8.5190    2.2170 N   0  0  0  0  0
   35.8970   -8.3280    3.4640 C   0  0  0  0  0
   35.1120   -8.9140    4.6350 C   0  0  0  0  0
   36.1370   -6.8370    3.7070 C   0  0  0  0  0
   36.8830   -6.1570    2.5570 C   0  0  0  0  0
   36.6390   -4.8100    2.2640 C   0  0  0  0  0
   37.8090   -6.8820    1.7970 C   0  0  0  0  0
   37.3210   -4.1880    1.2120 C   0  0  0  0  0
   38.4910   -6.2600    0.7450 C   0  0  0  0  0
   38.2470   -4.9130    0.4520 C   0  0  0  0  0
   35.0220  -10.3550    4.4950 N   0  3  0  0  0
   35.2990  -11.2700    5.6020 C   0  0  0  0  0
   36.7430  -11.7550    5.5460 C   0  0  0  0  0
   37.3100  -11.9480    4.4600 O   0  0  0  0  0
   34.3180  -12.4480    5.5900 C   0  0  0  0  0
   34.4040  -13.2950    4.3210 C   0  0  0  0  0
   33.7510  -12.8750    3.1580 C   0  0  0  0  0
   35.1220  -14.4980    4.3270 C   0  0  0  0  0
   33.8170  -13.6550    1.9980 C   0  0  0  0  0
   35.1880  -15.2790    3.1670 C   0  0  0  0  0
   34.5360  -14.8570    2.0020 C   0  0  0  0  0
   37.2650  -11.9090    6.7440 N   0  0  0  0  0
   38.6080  -12.4270    6.9880 C   0  0  0  0  0
   38.6470  -13.9200    6.6700 C   0  0  0  0  0
   37.7460  -14.6790    7.0570 O   0  0  0  0  0
   38.9430  -12.2840    8.4720 C   0  0  0  0  0
   40.4000  -11.9070    8.7270 C   0  0  0  0  0
   40.9600  -12.5280   10.0060 C   0  0  0  0  0
   42.1640  -13.3350    9.7690 N   0  0  0  0  0
   42.6720  -14.2010   10.6550 C   0  3  0  0  0
   42.0920  -14.3900   11.8480 N   0  0  0  0  0
   43.7720  -14.9360   10.4380 N   0  0  0  0  0
   39.6930  -14.3230    6.0280 N   0  0  0  0  0
   39.9350  -15.7430    5.7390 C   0  0  0  0  0
   41.3950  -16.0920    6.0230 C   0  0  0  0  0
   41.7550  -16.4550    7.1520 O   0  0  0  0  0
   39.5730  -16.0550    4.2880 C   0  0  0  0  0
   38.2990  -16.8910    4.1640 C   0  0  0  0  0
   38.1770  -17.5990    2.8150 C   0  0  0  0  0
   38.0340  -18.8800    2.7690 O   0  0  0  0  0
   38.2160  -16.9150    1.7220 O   0  5  0  0  0
   42.2380  -16.0160    5.1160 O   0  5  0  0  0
   35.6622  -10.6054    3.7577 H   0  0  0  0  0
 63  1  1  0  0  0
 66  2  1  0  0  0
 66  3  1  0  0  0
 67  4  1  0  0  0
 67  5  1  0  0  0
 68  6  1  0  0  0
 68  7  1  0  0  0
 69  8  1  0  0  0
 70  9  1  0  0  0
 73 10  1  0  0  0
 74 11  1  0  0  0
 75 12  1  0  0  0
 75 13  1  0  0  0
 75 14  1  0  0  0
 76 15  1  0  0  0
 77 16  1  0  0  0
 80 17  1  0  0  0
 80 18  1  0  0  0
 81 19  1  0  0  0
 81 20  1  0  0  0
 85 21  1  0  0  0
 86 22  1  0  0  0
 88 23  1  0  0  0
 88 24  1  0  0  0
 90 25  1  0  0  0
 91 26  1  0  0  0
 92 27  1  0  0  0
 93 28  1  0  0  0
 94 29  1  0  0  0
 95 30  1  0  0  0
 96 31  1  0  0  0
 99 32  1  0  0  0
 99 33  1  0  0  0
101 34  1  0  0  0
102 35  1  0  0  0
103 36  1  0  0  0
104 37  1  0  0  0
105 38  1  0  0  0
106 39  1  0  0  0
107 40  1  0  0  0
110 41  1  0  0  0
110 42  1  0  0  0
111 43  1  0  0  0
111 44  1  0  0  0
112 45  1  0  0  0
112 46  1  0  0  0
113 47  1  0  0  0
115 48  1  0  0  0
115 49  1  0  0  0
116 50  1  0  0  0
116 51  1  0  0  0
117 52  1  0  0  0
118 53  1  0  0  0
121 54  1  0  0  0
121 55  1  0  0  0
122 56  1  0  0  0
122 57  1  0  0  0
 62 58  1  0  0  0
 62 59  1  0  0  0
 87 60  1  0  0  0
 87 61  1  0  0  0
 64 63  1  0  0  0
 63 66  1  0  0  0
 63 62  1  0  0  0
 62 68  1  0  0  0
 68 67  1  0  0  0
 66 67  1  0  0  0
 64 65  2  0  0  0
 70 69  1  0  0  0
 70 73  1  0  0  0
 71 70  1  0  0  0
 71 72  2  0  0  0
 73 75  1  0  0  0
 73 74  1  0  0  0
 69 64  1  0  0  0
 77 76  1  0  0  0
 77 80  1  0  0  0
 78 77  1  0  0  0
 78 79  2  0  0  0
 80 81  1  0  0  0
 81 82  1  0  0  0
 82 84  1  0  0  0
 82 83  2  0  0  0
 76 71  1  0  0  0
 86 85  1  0  0  0
 86 88  1  0  0  0
 87 86  1  0  0  0
 88 89  1  0  0  0
 89 90  4  0  0  0
 89 91  4  0  0  0
 91 93  4  0  0  0
 93 94  4  0  0  0
 92 94  4  0  0  0
 90 92  4  0  0  0
 85 78  1  0  0  0
 96 95  1  0  0  0
 96 99  1  0  0  0
 97 96  1  0  0  0
 97 98  2  0  0  0
 99100  1  0  0  0
100101  4  0  0  0
100102  4  0  0  0
102104  4  0  0  0
104105  4  0  0  0
103105  4  0  0  0
101103  4  0  0  0
 95 87  1  0  0  0
107106  1  0  0  0
107110  1  0  0  0
108107  1  0  0  0
108109  2  0  0  0
110111  1  0  0  0
111112  1  0  0  0
112113  1  0  0  0
113114  1  0  0  0
114116  1  0  0  0
114115  1  0  0  0
106 97  1  0  0  0
117118  1  0  0  0
118121  1  0  0  0
118119  1  0  0  0
119120  2  0  0  0
119126  1  0  0  0
121122  1  0  0  0
122123  1  0  0  0
123125  1  0  0  0
123124  2  0  0  0
108117  1  0  0  0
 95127  1  0  0  0
M  END
$$$$
