### 
### Created by X-TOOL on Sun Jun  3 11:51:45 2007
### 

@<TRIPOS>MOLECULE
2am4_ligand
   57    59     1     0     0
SMALL
GAST_HUCK


@<TRIPOS>ATOM
      1 C1          2.8570   20.5620   13.3920 C.3       1 SUB1        0.231
      2 O1          4.3390   20.1930   13.4440 O.3       1 SUB1       -0.183
      3 PB          4.8540   19.4600   12.2400 P.3       1 SUB1        0.549
      4 O1B         6.2360   19.9900   11.9730 O.2       1 SUB1       -0.276
      5 O2B         4.9730   18.0790   12.7660 O.2       1 SUB1       -0.276
      6 O3A         4.0350   19.5390   10.9040 O.3       1 SUB1       -0.048
      7 PA          3.7200   18.5240    9.7620 P.3       1 SUB1        0.546
      8 O1A         4.0470   17.2030   10.1860 O.2       1 SUB1       -0.276
      9 O2A         4.5050   19.0630    8.5950 O.2       1 SUB1       -0.276
     10 O5'         2.1480   18.6230    9.5240 O.3       1 SUB1       -0.215
     11 C5'         1.2800   18.1470   10.5360 C.3       1 SUB1        0.116
     12 C4'         0.0470   17.6080    9.7490 C.3       1 SUB1        0.119
     13 O4'        -0.6530   18.6400    9.0290 O.3       1 SUB1       -0.336
     14 C1'        -0.7600   18.2440    7.6610 C.3       1 SUB1        0.206
     15 C2'         0.3770   17.3040    7.3720 C.3       1 SUB1        0.139
     16 C3'         0.4250   16.5470    8.7030 C.3       1 SUB1        0.115
     17 O3'        -0.5110   15.4740    8.7220 O.3       1 SUB1       -0.386
     18 O2'         0.0440   16.5120    6.2820 O.3       1 SUB1       -0.384
     19 N1         -0.7540   19.4880    6.8680 N.am      1 SUB1       -0.159
     20 C6'        -1.9790   19.9270    6.2950 C.2       1 SUB1        0.333
     21 O6'        -3.0160   19.3220    6.4440 O.2       1 SUB1       -0.382
     22 N3         -1.9890   21.1100    5.5290 N.am      1 SUB1       -0.186
     23 C7'        -0.8270   21.8560    5.3230 C.2       1 SUB1        0.182
     24 O7'        -0.8890   22.8040    4.6920 O.2       1 SUB1       -0.412
     25 C8'         0.3820   21.4210    5.8950 C.2       1 SUB1        0.006
     26 C9'         0.4260   20.2380    6.6660 C.2       1 SUB1        0.059
     27 C2          2.2130   21.7220   13.9410 C.3       1 SUB1        0.185
     28 F1          2.8270   22.8550   13.3520 F         1 SUB1       -0.237
     29 C3          2.4800   21.8920   15.5030 C.3       1 SUB1        0.120
     30 O3          2.0010   23.1810   16.2120 O.3       1 SUB1       -0.386
     31 C4          1.8680   20.6310   16.2410 C.3       1 SUB1        0.112
     32 O4          2.4130   20.6520   17.6620 O.3       1 SUB1       -0.387
     33 C5          2.3730   19.2270   15.4630 C.3       1 SUB1        0.113
     34 C6          1.5830   18.0250   16.0670 C.3       1 SUB1        0.073
     35 O6          1.9560   16.7720   15.4850 O.3       1 SUB1       -0.392
     36 O5          2.0690   19.4440   14.0660 O.3       1 SUB1       -0.336
     37 H           2.8514   20.7699   12.3220 H         1 SUB1        0.100
     38 H           1.0082   18.9259   11.2484 H         1 SUB1        0.065
     39 H           1.7456   17.3785   11.1530 H         1 SUB1        0.065
     40 H          -0.5863   17.1800   10.5260 H         1 SUB1        0.065
     41 H          -1.6728   17.7029    7.4118 H         1 SUB1        0.100
     42 H           1.3370   17.7413    7.0977 H         1 SUB1        0.068
     43 H           1.4009   16.0971    8.8857 H         1 SUB1        0.065
     44 H          -0.3064   14.8598    8.0131 H         1 SUB1        0.210
     45 H          -0.8246   16.1275    6.4207 H         1 SUB1        0.210
     46 H          -2.8654   21.4285    5.1156 H         1 SUB1        0.226
     47 H           1.2921   22.0011    5.7423 H         1 SUB1        0.026
     48 H           1.3672   19.9051    7.1035 H         1 SUB1        0.118
     49 H           1.1436   21.6217   13.7555 H         1 SUB1        0.073
     50 H           3.5642   21.9793   15.5732 H         1 SUB1        0.065
     51 H           2.2318   23.1375   17.1428 H         1 SUB1        0.210
     52 H           0.7783   20.6566   16.2354 H         1 SUB1        0.065
     53 H           2.1446   21.4660   18.0945 H         1 SUB1        0.210
     54 H           3.4330   19.0040   15.5845 H         1 SUB1        0.065
     55 H           0.5237   18.1855   15.8664 H         1 SUB1        0.058
     56 H           1.8062   17.9790   17.1329 H         1 SUB1        0.058
     57 H           1.4437   16.0677   15.8889 H         1 SUB1        0.209
@<TRIPOS>BOND
     1    1    2 1  
     2    1   27 1  
     3    1   36 1  
     4    2    3 1  
     5    3    4 2  
     6    3    5 2  
     7    3    6 1  
     8    6    7 1  
     9    7    8 2  
    10    7    9 2  
    11    7   10 1  
    12   10   11 1  
    13   11   12 1  
    14   12   13 1  
    15   12   16 1  
    16   13   14 1  
    17   14   15 1  
    18   14   19 1  
    19   15   16 1  
    20   15   18 1  
    21   16   17 1  
    22   19   20 am 
    23   19   26 1  
    24   20   21 2  
    25   20   22 am 
    26   22   23 am 
    27   23   24 2  
    28   23   25 1  
    29   25   26 2  
    30   27   28 1  
    31   27   29 1  
    32   29   30 1  
    33   29   31 1  
    34   31   32 1  
    35   31   33 1  
    36   33   34 1  
    37   33   36 1  
    38   34   35 1  
    39    1   37 1  
    40   11   38 1  
    41   11   39 1  
    42   12   40 1  
    43   14   41 1  
    44   15   42 1  
    45   16   43 1  
    46   17   44 1  
    47   18   45 1  
    48   22   46 1  
    49   25   47 1  
    50   26   48 1  
    51   27   49 1  
    52   29   50 1  
    53   30   51 1  
    54   31   52 1  
    55   32   53 1  
    56   33   54 1  
    57   34   55 1  
    58   34   56 1  
    59   35   57 1  
@<TRIPOS>SUBSTRUCTURE
     1 SUB1        1 GROUP

