3pcj_ligand
  -I-interpret- 

 15 15  0  0  0  0  0  0  0  0999 V2000
   15.9642   10.4261   39.4962 H   0  0  0  0  0
   13.4887   13.1602   41.7520 H   0  0  0  0  0
   12.2042   11.1777   42.5801 H   0  0  0  0  0
   12.9398    7.9778   41.5264 H   0  0  0  0  0
   13.3610    9.7970   41.4810 N   0  0  0  0  0
   14.3500    9.5850   40.6410 C   0  0  0  0  0
   15.1420   10.6250   40.1820 C   0  0  0  0  0
   14.8770   11.9410   40.6080 C   0  0  0  0  0
   13.7720   12.1530   41.4500 C   0  0  0  0  0
   13.0390   11.0370   41.8950 C   0  0  0  0  0
   15.7860   13.1060   40.1640 C   0  0  0  0  0
   16.7390   12.8800   39.4340 O   0  0  0  0  0
   15.5690   14.2670   40.5150 O   0  5  0  0  0
   14.5980    8.4430   40.2390 O   0  0  0  0  0
   12.6050    8.7900   41.8880 O   0  0  0  0  0
  7  1  1  0  0  0
  9  2  1  0  0  0
 10  3  1  0  0  0
  5 15  1  0  0  0
  5 10  1  0  0  0
  6  5  1  0  0  0
  6 14  2  0  0  0
  7  6  1  0  0  0
  8  7  2  0  0  0
  8 11  1  0  0  0
  8  9  1  0  0  0
  9 10  2  0  0  0
 11 13  1  0  0  0
 11 12  2  0  0  0
 15  4  1  0  0  0
M  END
$$$$
