### 
### Created by X-TOOL on Tue Oct 25 01:05:29 2005
### 

@<TRIPOS>MOLECULE
3pcj_ligand
   15    15     1     0     0
SMALL
GAST_HUCK


@<TRIPOS>ATOM
      1 H71        15.9642   10.4261   39.4962 H         1 SUB1        0.056
      2 H91        13.4887   13.1602   41.7520 H         1 SUB1        0.027
      3 H101       12.2042   11.1777   42.5801 H         1 SUB1        0.116
      4 H151       12.9398    7.9778   41.5264 H         1 SUB1        0.264
      5 N1         13.3610    9.7970   41.4810 N.am      1 SUB1       -0.082
      6 C2         14.3500    9.5850   40.6410 C.2       1 SUB1        0.236
      7 C3         15.1420   10.6250   40.1820 C.2       1 SUB1        0.007
      8 C4         14.8770   11.9410   40.6080 C.2       1 SUB1       -0.018
      9 C5         13.7720   12.1530   41.4500 C.2       1 SUB1       -0.045
     10 C6         13.0390   11.0370   41.8950 C.2       1 SUB1        0.085
     11 C7         15.7860   13.1060   40.1640 C.2       1 SUB1        0.073
     12 O1         16.7390   12.8800   39.4340 O.co2     1 SUB1       -0.540
     13 O2         15.5690   14.2670   40.5150 O.co2     1 SUB1       -0.540
     14 O3         14.5980    8.4430   40.2390 O.2       1 SUB1       -0.409
     15 O4         12.6050    8.7900   41.8880 O.3       1 SUB1       -0.230
@<TRIPOS>BOND
     1    7    1 1  
     2    9    2 1  
     3   10    3 1  
     4    5   15 1  
     5    5   10 am 
     6    6    5 am 
     7    6   14 2  
     8    7    6 1  
     9    8    7 2  
    10    8   11 1  
    11    8    9 1  
    12    9   10 2  
    13   11   13 2  
    14   11   12 2  
    15   15    4 1  
@<TRIPOS>SUBSTRUCTURE
     1 SUB1        1 GROUP

