### 
### Created by X-TOOL on Tue Oct 25 00:59:19 2005
### 

@<TRIPOS>MOLECULE
1vjc_ligand
   43    45     1     0     0
SMALL
GAST_HUCK


@<TRIPOS>ATOM
      1 PG          8.8290   -0.7400   23.5190 P.3       1 SUB1        0.143
      2 O1G        10.2840   -0.6010   23.8230 O.co2     1 SUB1       -0.614
      3 O2G         8.3370   -2.1300   23.4440 O.co2     1 SUB1       -0.614
      4 O3G         7.9700    0.2250   24.2740 O.co2     1 SUB1       -0.614
      5 PB          9.3940    0.8970   21.2100 P.3       1 SUB1        0.354
      6 O1B        10.8330    0.7800   21.3730 O.co2     1 SUB1       -0.497
      7 O2B         8.8570    0.9830   19.8930 O.co2     1 SUB1       -0.497
      8 O3B         8.7190   -0.3170   21.9830 O.3       1 SUB1       -0.297
      9 PA          9.3240    3.6380   22.4940 P.3       1 SUB1        0.350
     10 O1A        10.6370    3.6520   23.1500 O.co2     1 SUB1       -0.488
     11 O2A         9.1170    4.4860   21.3390 O.co2     1 SUB1       -0.488
     12 O3A         8.9180    2.1590   22.2050 O.3       1 SUB1       -0.186
     13 O5          8.3250    3.9390   23.5210 O.3       1 SUB1       -0.280
     14 C5          6.9160    3.9860   23.2330 C.3       1 SUB1        0.102
     15 C4          6.1440    3.7760   24.4910 C.3       1 SUB1        0.118
     16 O4          6.3980    4.9330   25.3270 O.3       1 SUB1       -0.336
     17 C3          4.6490    3.7630   24.3000 C.3       1 SUB1        0.115
     18 O3          4.1560    2.4350   24.5440 O.3       1 SUB1       -0.386
     19 C2          4.1160    4.7940   25.2710 C.3       1 SUB1        0.139
     20 O2          3.0380    4.3380   26.0780 O.3       1 SUB1       -0.384
     21 C1          5.2980    5.0750   26.2160 C.3       1 SUB1        0.201
     22 N9          5.2580    6.4560   26.7800 N.pl3     1 SUB1       -0.192
     23 C8          5.0370    7.6490   26.1280 C.2       1 SUB1        0.112
     24 N7          5.0470    8.7000   26.8800 N.2       1 SUB1       -0.296
     25 C5          5.2970    8.1720   28.1320 C.ar      1 SUB1        0.105
     26 C6          5.4310    8.7700   29.4170 C.ar      1 SUB1        0.130
     27 N6          5.3130   10.0860   29.5700 N.pl3     1 SUB1       -0.315
     28 N1          5.6810    7.9690   30.4910 N.ar      1 SUB1       -0.270
     29 C2          5.7940    6.6440   30.3180 C.ar      1 SUB1        0.053
     30 N3          5.6840    5.9510   29.1630 N.ar      1 SUB1       -0.271
     31 C4          5.4310    6.7970   28.0880 C.ar      1 SUB1        0.161
     32 H141        6.6628    3.1955   22.5112 H         1 SUB1        0.064
     33 H142        6.6616    4.9674   22.8063 H         1 SUB1        0.064
     34 H151        6.4708    2.8446   24.9765 H         1 SUB1        0.065
     35 H171        4.3889    4.0553   23.2719 H         1 SUB1        0.065
     36 H181        3.2136    2.4214   24.4249 H         1 SUB1        0.210
     37 H191        3.8097    5.6998   24.7273 H         1 SUB1        0.068
     38 H201        3.3229    3.5924   26.5931 H         1 SUB1        0.210
     39 H211        5.3386    4.3433   27.0363 H         1 SUB1        0.100
     40 H231        4.8658    7.7028   25.0539 H         1 SUB1        0.135
     41 H271        5.4120   10.5067   30.5049 H         1 SUB1        0.182
     42 H272        5.1226   10.6844   28.7535 H         1 SUB1        0.182
     43 H291        5.9973    6.0606   31.2087 H         1 SUB1        0.100
@<TRIPOS>BOND
     1    1    2 2  
     2    1    3 2  
     3    1    4 2  
     4    8    1 1  
     5    5    6 2  
     6    5    7 2  
     7    5    8 1  
     8   12    5 1  
     9    9   10 2  
    10    9   11 2  
    11    9   12 1  
    12    9   13 1  
    13   13   14 1  
    14   14   15 1  
    15   15   16 1  
    16   15   17 1  
    17   16   21 1  
    18   17   18 1  
    19   17   19 1  
    20   19   20 1  
    21   19   21 1  
    22   21   22 1  
    23   22   23 1  
    24   22   31 1  
    25   23   24 2  
    26   24   25 1  
    27   25   26 ar 
    28   25   31 ar 
    29   26   27 1  
    30   26   28 ar 
    31   28   29 ar 
    32   29   30 ar 
    33   30   31 ar 
    34   14   32 1  
    35   14   33 1  
    36   15   34 1  
    37   17   35 1  
    38   18   36 1  
    39   19   37 1  
    40   20   38 1  
    41   21   39 1  
    42   23   40 1  
    43   27   41 1  
    44   27   42 1  
    45   29   43 1  
@<TRIPOS>SUBSTRUCTURE
     1 SUB1        1 GROUP

