1vjc_ligand
  -I-interpret- 

 43 45  0  0  0  0  0  0  0  0999 V2000
    8.8290   -0.7400   23.5190 P   0  0  0  0  0
   10.2840   -0.6010   23.8230 O   0  5  0  0  0
    8.3370   -2.1300   23.4440 O   0  0  0  0  0
    7.9700    0.2250   24.2740 O   0  5  0  0  0
    9.3940    0.8970   21.2100 P   0  0  0  0  0
   10.8330    0.7800   21.3730 O   0  5  0  0  0
    8.8570    0.9830   19.8930 O   0  0  0  0  0
    8.7190   -0.3170   21.9830 O   0  0  0  0  0
    9.3240    3.6380   22.4940 P   0  0  0  0  0
   10.6370    3.6520   23.1500 O   0  5  0  0  0
    9.1170    4.4860   21.3390 O   0  0  0  0  0
    8.9180    2.1590   22.2050 O   0  0  0  0  0
    8.3250    3.9390   23.5210 O   0  0  0  0  0
    6.9160    3.9860   23.2330 C   0  0  0  0  0
    6.1440    3.7760   24.4910 C   0  0  0  0  0
    6.3980    4.9330   25.3270 O   0  0  0  0  0
    4.6490    3.7630   24.3000 C   0  0  0  0  0
    4.1560    2.4350   24.5440 O   0  0  0  0  0
    4.1160    4.7940   25.2710 C   0  0  0  0  0
    3.0380    4.3380   26.0780 O   0  0  0  0  0
    5.2980    5.0750   26.2160 C   0  0  0  0  0
    5.2580    6.4560   26.7800 N   0  0  0  0  0
    5.0370    7.6490   26.1280 C   0  0  0  0  0
    5.0470    8.7000   26.8800 N   0  0  0  0  0
    5.2970    8.1720   28.1320 C   0  0  0  0  0
    5.4310    8.7700   29.4170 C   0  0  0  0  0
    5.3130   10.0860   29.5700 N   0  0  0  0  0
    5.6810    7.9690   30.4910 N   0  0  0  0  0
    5.7940    6.6440   30.3180 C   0  0  0  0  0
    5.6840    5.9510   29.1630 N   0  0  0  0  0
    5.4310    6.7970   28.0880 C   0  0  0  0  0
    6.6628    3.1955   22.5112 H   0  0  0  0  0
    6.6616    4.9674   22.8063 H   0  0  0  0  0
    6.4708    2.8446   24.9765 H   0  0  0  0  0
    4.3889    4.0553   23.2719 H   0  0  0  0  0
    3.2136    2.4214   24.4249 H   0  0  0  0  0
    3.8097    5.6998   24.7273 H   0  0  0  0  0
    3.3229    3.5924   26.5931 H   0  0  0  0  0
    5.3386    4.3433   27.0363 H   0  0  0  0  0
    4.8658    7.7028   25.0539 H   0  0  0  0  0
    5.4120   10.5067   30.5049 H   0  0  0  0  0
    5.1226   10.6844   28.7535 H   0  0  0  0  0
    5.9973    6.0606   31.2087 H   0  0  0  0  0
  1  2  1  0  0  0
  1  3  2  0  0  0
  1  4  1  0  0  0
  8  1  1  0  0  0
  5  6  1  0  0  0
  5  7  2  0  0  0
  5  8  1  0  0  0
 12  5  1  0  0  0
  9 10  1  0  0  0
  9 11  2  0  0  0
  9 12  1  0  0  0
  9 13  1  0  0  0
 13 14  1  0  0  0
 14 15  1  0  0  0
 15 16  1  0  0  0
 15 17  1  0  0  0
 16 21  1  0  0  0
 17 18  1  0  0  0
 17 19  1  0  0  0
 19 20  1  0  0  0
 19 21  1  0  0  0
 21 22  1  0  0  0
 22 23  1  0  0  0
 22 31  1  0  0  0
 23 24  2  0  0  0
 24 25  1  0  0  0
 25 26  4  0  0  0
 25 31  4  0  0  0
 26 27  1  0  0  0
 26 28  4  0  0  0
 28 29  4  0  0  0
 29 30  4  0  0  0
 30 31  4  0  0  0
 14 32  1  0  0  0
 14 33  1  0  0  0
 15 34  1  0  0  0
 17 35  1  0  0  0
 18 36  1  0  0  0
 19 37  1  0  0  0
 20 38  1  0  0  0
 21 39  1  0  0  0
 23 40  1  0  0  0
 27 41  1  0  0  0
 27 42  1  0  0  0
 29 43  1  0  0  0
M  END
$$$$
