1qxk_ligand
  -I-interpret- 

 66 67  0  0  0  0  0  0  0  0999 V2000
   34.4080   30.0010   19.7020 C   0  0  0  0  0
   33.7610   28.9820   20.4480 C   0  0  0  0  0
   32.3340   28.9530   20.5010 C   0  0  0  0  0
   31.5840   29.9230   19.8090 C   0  0  0  0  0
   32.2310   30.9430   19.0530 C   0  0  0  0  0
   33.6480   30.9680   19.0090 C   0  0  0  0  0
   34.5820   28.0540   21.0920 O   0  0  0  0  0
   31.3770   31.7290   16.7440 C   0  0  0  0  0
   30.5880   32.7730   16.0700 N   0  0  0  0  0
   30.8620   33.1910   14.8150 C   0  0  0  0  0
   30.7230   30.3610   16.4260 C   0  0  0  0  0
   29.3920   30.3480   16.6890 N   0  0  0  0  0
   28.7460   29.2060   17.3290 C   0  0  0  0  0
   27.4550   29.6820   18.0040 C   0  0  0  0  0
   26.3390   30.6290   20.0860 C   0  0  0  0  0
   27.6500   30.1510   19.4620 C   0  0  0  0  0
   25.9830   29.7510   21.1470 O   0  0  0  0  0
   31.9830   33.4070   14.3590 O   0  0  0  0  0
   29.6010   33.3810   13.9670 C   0  0  0  0  0
   34.1860   27.6790   22.3930 C   0  0  0  0  0
   31.3670   29.4170   15.9840 O   0  0  0  0  0
   31.4210   31.9840   18.2930 C   0  0  0  0  0
   35.0890   26.5600   22.8380 C   0  0  0  0  0
   36.0330   27.0090   23.6830 O   0  5  0  0  0
   34.9880   25.4290   22.4870 O   0  0  0  0  0
   24.6570   29.8370   21.6320 C   0  0  0  0  0
   23.9960   31.1030   21.8360 C   0  0  0  0  0
   22.6710   31.1650   22.3230 C   0  0  0  0  0
   21.9780   29.9710   22.6200 C   0  0  0  0  0
   22.5950   28.7110   22.4340 C   0  0  0  0  0
   23.9400   28.6200   21.9410 C   0  0  0  0  0
   24.5450   27.2720   21.7650 C   0  0  0  0  0
   24.6140   26.4980   22.6920 O   0  0  0  0  0
   24.9990   26.9780   20.5380 O   0  0  0  0  0
   25.5920   25.6820   20.3250 C   0  0  0  0  0
   21.8470   27.5910   22.7510 O   0  0  0  0  0
   35.7900   30.0380   19.6450 O   0  0  0  0  0
   31.8284   28.1842   21.0740 H   0  0  0  0  0
   30.5012   29.8935   19.8518 H   0  0  0  0  0
   34.1532   31.7379   18.4371 H   0  0  0  0  0
   32.4105   31.7424   16.3676 H   0  0  0  0  0
   29.8209   33.1881   16.5592 H   0  0  0  0  0
   28.8386   31.1421   16.4377 H   0  0  0  0  0
   28.4972   28.4441   16.5756 H   0  0  0  0  0
   29.4121   28.7760   18.0914 H   0  0  0  0  0
   27.0475   30.5277   17.4307 H   0  0  0  0  0
   26.7334   28.8518   18.0118 H   0  0  0  0  0
   25.5535   30.6245   19.3160 H   0  0  0  0  0
   26.4781   31.6488   20.4739 H   0  0  0  0  0
   28.0335   29.3139   20.0637 H   0  0  0  0  0
   28.3660   30.9858   19.4814 H   0  0  0  0  0
   29.8929   33.7203   12.9622 H   0  0  0  0  0
   29.0603   32.4271   13.8799 H   0  0  0  0  0
   28.9508   34.1400   14.4265 H   0  0  0  0  0
   34.2910   28.5288   23.0835 H   0  0  0  0  0
   33.1440   27.3265   22.3878 H   0  0  0  0  0
   30.3867   31.9723   18.6671 H   0  0  0  0  0
   31.8691   32.9746   18.4600 H   0  0  0  0  0
   24.5248   32.0223   21.6119 H   0  0  0  0  0
   22.1886   32.1249   22.4680 H   0  0  0  0  0
   20.9620   30.0201   22.9947 H   0  0  0  0  0
   25.9098   25.6018   19.2750 H   0  0  0  0  0
   26.4707   25.5601   20.9754 H   0  0  0  0  0
   24.8556   24.8930   20.5376 H   0  0  0  0  0
   22.2884   27.0996   23.4337 H   0  0  0  0  0
   36.1463   29.3243   20.1609 H   0  0  0  0  0
  1  2  4  0  0  0
  6  1  4  0  0  0
  1 37  1  0  0  0
  3  2  4  0  0  0
  2  7  1  0  0  0
  4  3  4  0  0  0
  5  4  4  0  0  0
  5  6  4  0  0  0
 22  5  1  0  0  0
  7 20  1  0  0  0
  8  9  1  0  0  0
 11  8  1  0  0  0
  8 22  1  0  0  0
  9 10  1  0  0  0
 10 18  2  0  0  0
 10 19  1  0  0  0
 12 11  1  0  0  0
 11 21  2  0  0  0
 13 12  1  0  0  0
 14 13  1  0  0  0
 16 14  1  0  0  0
 20 23  1  0  0  0
 23 24  1  0  0  0
 23 25  2  0  0  0
 26 27  4  0  0  0
 26 31  4  0  0  0
 27 28  4  0  0  0
 28 29  4  0  0  0
 30 29  4  0  0  0
 31 30  4  0  0  0
 30 36  1  0  0  0
 31 32  1  0  0  0
 32 33  2  0  0  0
 32 34  1  0  0  0
 34 35  1  0  0  0
 17 26  1  0  0  0
 15 17  1  0  0  0
 16 15  1  0  0  0
  3 38  1  0  0  0
  4 39  1  0  0  0
  6 40  1  0  0  0
  8 41  1  0  0  0
  9 42  1  0  0  0
 12 43  1  0  0  0
 13 44  1  0  0  0
 13 45  1  0  0  0
 14 46  1  0  0  0
 14 47  1  0  0  0
 15 48  1  0  0  0
 15 49  1  0  0  0
 16 50  1  0  0  0
 16 51  1  0  0  0
 19 52  1  0  0  0
 19 53  1  0  0  0
 19 54  1  0  0  0
 20 55  1  0  0  0
 20 56  1  0  0  0
 22 57  1  0  0  0
 22 58  1  0  0  0
 27 59  1  0  0  0
 28 60  1  0  0  0
 29 61  1  0  0  0
 35 62  1  0  0  0
 35 63  1  0  0  0
 35 64  1  0  0  0
 36 65  1  0  0  0
 37 66  1  0  0  0
M  END
$$$$
