### 
### Created by X-TOOL on Tue Oct 25 02:02:38 2005
### 

@<TRIPOS>MOLECULE
1qxk_ligand
   66    67     1     0     0
SMALL
GAST_HUCK


@<TRIPOS>ATOM
      1 C1         34.4080   30.0010   19.7020 C.ar      1 SUB1        0.110
      2 C2         33.7610   28.9820   20.4480 C.ar      1 SUB1        0.117
      3 C3         32.3340   28.9530   20.5010 C.ar      1 SUB1       -0.047
      4 C4         31.5840   29.9230   19.8090 C.ar      1 SUB1       -0.080
      5 C5         32.2310   30.9430   19.0530 C.ar      1 SUB1       -0.058
      6 C6         33.6480   30.9680   19.0090 C.ar      1 SUB1       -0.040
      7 O5         34.5820   28.0540   21.0920 O.3       1 SUB1       -0.311
      8 C9         31.3770   31.7290   16.7440 C.3       1 SUB1        0.139
      9 N1         30.5880   32.7730   16.0700 N.am      1 SUB1       -0.264
     10 C10        30.8620   33.1910   14.8150 C.2       1 SUB1        0.175
     11 C11        30.7230   30.3610   16.4260 C.2       1 SUB1        0.204
     12 N2         29.3920   30.3480   16.6890 N.am      1 SUB1       -0.285
     13 C12        28.7460   29.2060   17.3290 C.3       1 SUB1        0.031
     14 C13        27.4550   29.6820   18.0040 C.3       1 SUB1       -0.030
     15 C14        26.3390   30.6290   20.0860 C.3       1 SUB1        0.072
     16 C15        27.6500   30.1510   19.4620 C.3       1 SUB1       -0.023
     17 O1         25.9830   29.7510   21.1470 O.3       1 SUB1       -0.315
     18 O4         31.9830   33.4070   14.3590 O.2       1 SUB1       -0.397
     19 C23        29.6010   33.3810   13.9670 C.3       1 SUB1        0.026
     20 C8         34.1860   27.6790   22.3930 C.3       1 SUB1        0.106
     21 O8         31.3670   29.4170   15.9840 O.2       1 SUB1       -0.394
     22 C7         31.4210   31.9840   18.2930 C.3       1 SUB1        0.014
     23 C24        35.0890   26.5600   22.8380 C.2       1 SUB1        0.058
     24 O6         36.0330   27.0090   23.6830 O.co2     1 SUB1       -0.564
     25 O7         34.9880   25.4290   22.4870 O.co2     1 SUB1       -0.564
     26 C32        24.6570   29.8370   21.6320 C.ar      1 SUB1        0.106
     27 C33        23.9960   31.1030   21.8360 C.ar      1 SUB1       -0.038
     28 C34        22.6710   31.1650   22.3230 C.ar      1 SUB1       -0.074
     29 C35        21.9780   29.9710   22.6200 C.ar      1 SUB1       -0.038
     30 C36        22.5950   28.7110   22.4340 C.ar      1 SUB1        0.103
     31 C37        23.9400   28.6200   21.9410 C.ar      1 SUB1        0.118
     32 C38        24.5450   27.2720   21.7650 C.2       1 SUB1        0.251
     33 O11        24.6140   26.4980   22.6920 O.2       1 SUB1       -0.370
     34 O12        24.9990   26.9780   20.5380 O.3       1 SUB1       -0.285
     35 C39        25.5920   25.6820   20.3250 C.3       1 SUB1        0.064
     36 O13        21.8470   27.5910   22.7510 O.3       1 SUB1       -0.330
     37 O2         35.7900   30.0380   19.6450 O.3       1 SUB1       -0.338
     38 H31        31.8284   28.1842   21.0740 H         1 SUB1        0.049
     39 H41        30.5012   29.8935   19.8518 H         1 SUB1        0.044
     40 H61        34.1532   31.7379   18.4371 H         1 SUB1        0.045
     41 H81        32.4105   31.7424   16.3676 H         1 SUB1        0.082
     42 H91        29.8209   33.1881   16.5592 H         1 SUB1        0.188
     43 H121       28.8386   31.1421   16.4377 H         1 SUB1        0.185
     44 H131       28.4972   28.4441   16.5756 H         1 SUB1        0.052
     45 H132       29.4121   28.7760   18.0914 H         1 SUB1        0.052
     46 H141       27.0475   30.5277   17.4307 H         1 SUB1        0.029
     47 H142       26.7334   28.8518   18.0118 H         1 SUB1        0.029
     48 H151       25.5535   30.6245   19.3160 H         1 SUB1        0.062
     49 H152       26.4781   31.6488   20.4739 H         1 SUB1        0.062
     50 H161       28.0335   29.3139   20.0637 H         1 SUB1        0.029
     51 H162       28.3660   30.9858   19.4814 H         1 SUB1        0.029
     52 H191       29.8929   33.7203   12.9622 H         1 SUB1        0.047
     53 H192       29.0603   32.4271   13.8799 H         1 SUB1        0.047
     54 H193       28.9508   34.1400   14.4265 H         1 SUB1        0.047
     55 H201       34.2910   28.5288   23.0835 H         1 SUB1        0.083
     56 H202       33.1440   27.3265   22.3878 H         1 SUB1        0.083
     57 H221       30.3867   31.9723   18.6671 H         1 SUB1        0.045
     58 H222       31.8691   32.9746   18.4600 H         1 SUB1        0.045
     59 H271       24.5248   32.0223   21.6119 H         1 SUB1        0.046
     60 H281       22.1886   32.1249   22.4680 H         1 SUB1        0.060
     61 H291       20.9620   30.0201   22.9947 H         1 SUB1        0.046
     62 H351       25.9098   25.6018   19.2750 H         1 SUB1        0.057
     63 H352       26.4707   25.5601   20.9754 H         1 SUB1        0.057
     64 H353       24.8556   24.8930   20.5376 H         1 SUB1        0.057
     65 H361       22.2884   27.0996   23.4337 H         1 SUB1        0.251
     66 H371       36.1463   29.3243   20.1609 H         1 SUB1        0.244
@<TRIPOS>BOND
     1    1    2 ar 
     2    6    1 ar 
     3    1   37 1  
     4    3    2 ar 
     5    2    7 1  
     6    4    3 ar 
     7    5    4 ar 
     8    5    6 ar 
     9   22    5 1  
    10    7   20 1  
    11    8    9 1  
    12   11    8 1  
    13    8   22 1  
    14    9   10 am 
    15   10   18 2  
    16   10   19 1  
    17   12   11 am 
    18   11   21 2  
    19   13   12 1  
    20   14   13 1  
    21   16   14 1  
    22   20   23 1  
    23   23   24 2  
    24   23   25 2  
    25   26   27 ar 
    26   26   31 ar 
    27   27   28 ar 
    28   28   29 ar 
    29   30   29 ar 
    30   31   30 ar 
    31   30   36 1  
    32   31   32 1  
    33   32   33 2  
    34   32   34 1  
    35   34   35 1  
    36   17   26 1  
    37   15   17 1  
    38   16   15 1  
    39    3   38 1  
    40    4   39 1  
    41    6   40 1  
    42    8   41 1  
    43    9   42 1  
    44   12   43 1  
    45   13   44 1  
    46   13   45 1  
    47   14   46 1  
    48   14   47 1  
    49   15   48 1  
    50   15   49 1  
    51   16   50 1  
    52   16   51 1  
    53   19   52 1  
    54   19   53 1  
    55   19   54 1  
    56   20   55 1  
    57   20   56 1  
    58   22   57 1  
    59   22   58 1  
    60   27   59 1  
    61   28   60 1  
    62   29   61 1  
    63   35   62 1  
    64   35   63 1  
    65   35   64 1  
    66   36   65 1  
    67   37   66 1  
@<TRIPOS>SUBSTRUCTURE
     1 SUB1        1 GROUP

