### 
### Created by X-TOOL on Mon Oct 24 23:07:10 2005
### 

@<TRIPOS>MOLECULE
1dy4_ligand
   39    41     1     0     0
SMALL
GAST_HUCK


@<TRIPOS>ATOM
      1 H221       24.7574   53.9920   92.4765 H         1 SUB1        0.050
      2 H231       22.4277   53.2270   92.9522 H         1 SUB1        0.058
      3 H241       20.5962   53.6972   91.2842 H         1 SUB1        0.049
      4 H251       19.8697   54.6263   89.1842 H         1 SUB1        0.060
      5 H261       20.3520   55.8510   87.0425 H         1 SUB1        0.061
      6 H271       22.7027   56.6234   86.5508 H         1 SUB1        0.059
      7 H281       24.5290   56.1594   88.2088 H         1 SUB1        0.063
      8 H321       26.7424   55.0119   91.9365 H         1 SUB1        0.065
      9 H322       25.9328   56.6121   91.8343 H         1 SUB1        0.065
     10 H331       28.3266   56.8793   91.3729 H         1 SUB1        0.068
     11 H341       27.8666   54.9653   89.3096 H         1 SUB1        0.210
     12 H351       26.3858   57.9463   89.7916 H         1 SUB1        0.084
     13 H352       27.2883   57.0118   88.5511 H         1 SUB1        0.084
     14 H361       29.2838   58.0350   89.5305 H         1 SUB1        0.202
     15 H362       28.2978   59.0505   90.3708 H         1 SUB1        0.202
     16 H371       27.3078   59.4577   88.0272 H         1 SUB1        0.085
     17 H381       30.0415   58.0823   87.4755 H         1 SUB1        0.032
     18 H382       28.9551   58.7791   86.2262 H         1 SUB1        0.032
     19 H391       28.3274   61.7312   88.4188 H         1 SUB1        0.032
     20 H392       29.4138   61.0343   89.6681 H         1 SUB1        0.032
     21 C1         24.3160   54.8910   90.5540 C.ar      1 SUB1        0.104
     22 C2         23.9770   54.1950   91.7520 C.ar      1 SUB1       -0.034
     23 C3         22.6480   53.7560   92.0320 C.ar      1 SUB1       -0.074
     24 C4         21.6110   54.0220   91.0850 C.ar      1 SUB1       -0.068
     25 C5         20.8780   54.9610   88.9690 C.ar      1 SUB1       -0.059
     26 C6         21.1500   55.6570   87.7500 C.ar      1 SUB1       -0.064
     27 C7         22.4810   56.0950   87.4710 C.ar      1 SUB1       -0.063
     28 C8         23.5190   55.8280   88.4210 C.ar      1 SUB1       -0.053
     29 C9         23.2560   55.1400   89.6330 C.ar      1 SUB1        0.018
     30 C10        21.9120   54.7070   89.8930 C.ar      1 SUB1       -0.026
     31 O1         25.5940   55.3310   90.2450 O.3       1 SUB1       -0.310
     32 C11        26.4520   55.8300   91.2610 C.3       1 SUB1        0.103
     33 C12        27.6980   56.4180   90.5970 C.3       1 SUB1        0.123
     34 O2         28.4170   55.3760   89.9660 O.3       1 SUB1       -0.384
     35 C13        27.3520   57.4830   89.5430 C.3       1 SUB1       -0.004
     36 N1         28.3890   58.4990   89.5320 N.4       1 SUB1        0.231
     37 C14        28.3430   59.3960   88.3940 C.3       1 SUB1       -0.022
     38 C15        29.2470   58.8190   87.2860 C.3       1 SUB1       -0.005
     39 C16        28.8230   60.8130   88.7670 C.3       1 SUB1       -0.005
@<TRIPOS>BOND
     1   22   21 ar 
     2   21   29 ar 
     3   21   31 1  
     4   23   22 ar 
     5   24   23 ar 
     6   30   24 ar 
     7   25   26 ar 
     8   30   25 ar 
     9   26   27 ar 
    10   27   28 ar 
    11   29   28 ar 
    12   29   30 ar 
    13   31   32 1  
    14   32   33 1  
    15   33   34 1  
    16   33   35 1  
    17   35   36 1  
    18   36   37 1  
    19   37   38 1  
    20   37   39 1  
    21   22    1 1  
    22   23    2 1  
    23   24    3 1  
    24   25    4 1  
    25   26    5 1  
    26   27    6 1  
    27   28    7 1  
    28   32    8 1  
    29   32    9 1  
    30   33   10 1  
    31   34   11 1  
    32   38   39 1  
    33   35   12 1  
    34   35   13 1  
    35   36   14 1  
    36   36   15 1  
    37   37   16 1  
    38   38   17 1  
    39   38   18 1  
    40   39   19 1  
    41   39   20 1  
@<TRIPOS>SUBSTRUCTURE
     1 SUB1        1 GROUP

