1dy4_ligand
  -I-interpret- 

 39 41  0  0  0  0  0  0  0  0999 V2000
   24.7574   53.9920   92.4765 H   0  0  0  0  0
   22.4277   53.2270   92.9522 H   0  0  0  0  0
   20.5962   53.6972   91.2842 H   0  0  0  0  0
   19.8697   54.6263   89.1842 H   0  0  0  0  0
   20.3520   55.8510   87.0425 H   0  0  0  0  0
   22.7027   56.6234   86.5508 H   0  0  0  0  0
   24.5290   56.1594   88.2088 H   0  0  0  0  0
   26.7424   55.0119   91.9365 H   0  0  0  0  0
   25.9328   56.6121   91.8343 H   0  0  0  0  0
   28.3266   56.8793   91.3729 H   0  0  0  0  0
   27.8666   54.9653   89.3096 H   0  0  0  0  0
   26.3858   57.9463   89.7916 H   0  0  0  0  0
   27.2883   57.0118   88.5511 H   0  0  0  0  0
   29.2838   58.0350   89.5305 H   0  0  0  0  0
   28.2978   59.0505   90.3708 H   0  0  0  0  0
   27.3078   59.4577   88.0272 H   0  0  0  0  0
   30.0415   58.0823   87.4755 H   0  0  0  0  0
   28.9551   58.7791   86.2262 H   0  0  0  0  0
   28.3274   61.7312   88.4188 H   0  0  0  0  0
   29.4138   61.0343   89.6681 H   0  0  0  0  0
   24.3160   54.8910   90.5540 C   0  0  0  0  0
   23.9770   54.1950   91.7520 C   0  0  0  0  0
   22.6480   53.7560   92.0320 C   0  0  0  0  0
   21.6110   54.0220   91.0850 C   0  0  0  0  0
   20.8780   54.9610   88.9690 C   0  0  0  0  0
   21.1500   55.6570   87.7500 C   0  0  0  0  0
   22.4810   56.0950   87.4710 C   0  0  0  0  0
   23.5190   55.8280   88.4210 C   0  0  0  0  0
   23.2560   55.1400   89.6330 C   0  0  0  0  0
   21.9120   54.7070   89.8930 C   0  0  0  0  0
   25.5940   55.3310   90.2450 O   0  0  0  0  0
   26.4520   55.8300   91.2610 C   0  0  0  0  0
   27.6980   56.4180   90.5970 C   0  0  0  0  0
   28.4170   55.3760   89.9660 O   0  0  0  0  0
   27.3520   57.4830   89.5430 C   0  0  0  0  0
   28.3890   58.4990   89.5320 N   0  3  0  0  0
   28.3430   59.3960   88.3940 C   0  0  0  0  0
   29.2470   58.8190   87.2860 C   0  0  0  0  0
   28.8230   60.8130   88.7670 C   0  0  0  0  0
 22 21  4  0  0  0
 21 29  4  0  0  0
 21 31  1  0  0  0
 23 22  4  0  0  0
 24 23  4  0  0  0
 30 24  4  0  0  0
 25 26  4  0  0  0
 30 25  4  0  0  0
 26 27  4  0  0  0
 27 28  4  0  0  0
 29 28  4  0  0  0
 29 30  4  0  0  0
 31 32  1  0  0  0
 32 33  1  0  0  0
 33 34  1  0  0  0
 33 35  1  0  0  0
 35 36  1  0  0  0
 36 37  1  0  0  0
 37 38  1  0  0  0
 37 39  1  0  0  0
 22  1  1  0  0  0
 23  2  1  0  0  0
 24  3  1  0  0  0
 25  4  1  0  0  0
 26  5  1  0  0  0
 27  6  1  0  0  0
 28  7  1  0  0  0
 32  8  1  0  0  0
 32  9  1  0  0  0
 33 10  1  0  0  0
 34 11  1  0  0  0
 38 39  1  0  0  0
 35 12  1  0  0  0
 35 13  1  0  0  0
 36 14  1  0  0  0
 36 15  1  0  0  0
 37 16  1  0  0  0
 38 17  1  0  0  0
 38 18  1  0  0  0
 39 19  1  0  0  0
 39 20  1  0  0  0
M  END
$$$$
