1qaw_ligand
  -I-interpret- 

 27 28  0  0  0  0  0  0  0  0999 V2000
   18.8700   62.9900   33.5200 N   0  3  0  0  0
   18.0540   61.8970   32.9690 C   0  0  0  0  0
   18.6300   61.2890   31.6440 C   0  0  0  0  0
   18.9510   62.0290   30.6470 O   0  5  0  0  0
   16.5960   62.4040   32.8280 C   0  0  0  0  0
   15.7190   61.2120   32.5080 C   0  0  0  0  0
   15.2960   60.8500   31.2560 C   0  0  0  0  0
   15.1820   60.2210   33.3890 C   0  0  0  0  0
   14.5300   59.7140   31.3070 N   0  0  0  0  0
   14.4700   59.2920   32.6070 C   0  0  0  0  0
   15.2460   60.0100   34.7750 C   0  0  0  0  0
   13.8060   58.1920   33.1670 C   0  0  0  0  0
   14.5980   58.9040   35.3170 C   0  0  0  0  0
   13.8850   58.0100   34.5060 C   0  0  0  0  0
   19.1420   60.1410   31.7730 O   0  0  0  0  0
   19.6531   63.1742   32.9126 H   0  0  0  0  0
   18.0563   61.0744   33.6992 H   0  0  0  0  0
   16.2593   62.8602   33.7706 H   0  0  0  0  0
   16.5301   63.1551   32.0271 H   0  0  0  0  0
   15.5361   61.3921   30.3426 H   0  0  0  0  0
   14.0768   59.2562   30.5033 H   0  0  0  0  0
   15.7909   60.6968   35.4125 H   0  0  0  0  0
   13.2441   57.5052   32.5443 H   0  0  0  0  0
   14.6455   58.7306   36.3860 H   0  0  0  0  0
   13.3888   57.1591   34.9586 H   0  0  0  0  0
   18.3150   63.8278   33.5979 H   0  0  0  0  0
   19.2193   62.7136   34.4376 H   0  0  0  0  0
  2  1  1  0  0  0
  2  5  1  0  0  0
  2  3  1  0  0  0
  3  4  1  0  0  0
  3 15  2  0  0  0
  5  6  1  0  0  0
  6  7  2  0  0  0
  6  8  1  0  0  0
  8 11  4  0  0  0
  8 10  4  0  0  0
 10 12  4  0  0  0
 10  9  1  0  0  0
  9  7  1  0  0  0
 12 14  4  0  0  0
 14 13  4  0  0  0
 13 11  4  0  0  0
  1 27  1  0  0  0
  1 16  1  0  0  0
  2 17  1  0  0  0
  5 18  1  0  0  0
  5 19  1  0  0  0
  7 20  1  0  0  0
  9 21  1  0  0  0
 11 22  1  0  0  0
 12 23  1  0  0  0
 13 24  1  0  0  0
 14 25  1  0  0  0
  1 26  1  0  0  0
M  END
$$$$
