### 
### Created by X-TOOL on Tue Oct 25 02:35:24 2005
### 

@<TRIPOS>MOLECULE
1qaw_ligand
   27    28     1     0     0
SMALL
GAST_HUCK


@<TRIPOS>ATOM
      1 N          18.8700   62.9900   33.5200 N.4       1 SUB1        0.239
      2 CA         18.0540   61.8970   32.9690 C.3       1 SUB1        0.019
      3 C          18.6300   61.2890   31.6440 C.2       1 SUB1        0.077
      4 O          18.9510   62.0290   30.6470 O.co2     1 SUB1       -0.561
      5 CB         16.5960   62.4040   32.8280 C.3       1 SUB1        0.018
      6 CG         15.7190   61.2120   32.5080 C.2       1 SUB1       -0.038
      7 CD1        15.2960   60.8500   31.2560 C.2       1 SUB1        0.017
      8 CD2        15.1820   60.2210   33.3890 C.ar      1 SUB1       -0.021
      9 NE1        14.5300   59.7140   31.3070 N.pl3     1 SUB1       -0.289
     10 CE2        14.4700   59.2920   32.6070 C.ar      1 SUB1        0.060
     11 CE3        15.2460   60.0100   34.7750 C.ar      1 SUB1       -0.075
     12 CZ2        13.8060   58.1920   33.1670 C.ar      1 SUB1       -0.044
     13 CZ3        14.5980   58.9040   35.3170 C.ar      1 SUB1       -0.079
     14 CH2        13.8850   58.0100   34.5060 C.ar      1 SUB1       -0.077
     15 OXT        19.1420   60.1410   31.7730 O.co2     1 SUB1       -0.561
     16 H11        19.6531   63.1742   32.9126 H         1 SUB1        0.202
     17 H21        18.0563   61.0744   33.6992 H         1 SUB1        0.108
     18 H51        16.2593   62.8602   33.7706 H         1 SUB1        0.044
     19 H52        16.5301   63.1551   32.0271 H         1 SUB1        0.044
     20 H71        15.5361   61.3921   30.3426 H         1 SUB1        0.079
     21 H91        14.0768   59.2562   30.5033 H         1 SUB1        0.222
     22 H111       15.7909   60.6968   35.4125 H         1 SUB1        0.054
     23 H121       13.2441   57.5052   32.5443 H         1 SUB1        0.054
     24 H131       14.6455   58.7306   36.3860 H         1 SUB1        0.051
     25 H141       13.3888   57.1591   34.9586 H         1 SUB1        0.053
     26 H12        18.3150   63.8278   33.5979 H         1 SUB1        0.202
     27 H13        19.2193   62.7136   34.4376 H         1 SUB1        0.202
@<TRIPOS>BOND
     1    2    1 1  
     2    2    5 1  
     3    2    3 1  
     4    3    4 2  
     5    3   15 2  
     6    5    6 1  
     7    6    7 2  
     8    6    8 1  
     9    8   11 ar 
    10    8   10 ar 
    11   10   12 ar 
    12   10    9 1  
    13    9    7 1  
    14   12   14 ar 
    15   14   13 ar 
    16   13   11 ar 
    17    1   27 1  
    18    1   16 1  
    19    2   17 1  
    20    5   18 1  
    21    5   19 1  
    22    7   20 1  
    23    9   21 1  
    24   11   22 1  
    25   12   23 1  
    26   13   24 1  
    27   14   25 1  
    28    1   26 1  
@<TRIPOS>SUBSTRUCTURE
     1 SUB1        1 GROUP

