1k1j_ligand
  -I-interpret- 

 68 71  0  0  0  0  0  0  0  0999 V2000
   -4.7264    6.9411   20.4494 H   0  0  0  0  0
   -1.1706    4.5573   19.9437 H   0  0  0  0  0
    0.0822    6.5672   19.2087 H   0  0  0  0  0
   -1.0617    8.7742   19.0764 H   0  0  0  0  0
   -3.4281   11.3251   19.2206 H   0  0  0  0  0
   -3.0350    5.6090   20.2470 C   0  0  0  0  0
   -3.6800    6.8610   20.1780 C   0  0  0  0  0
   -1.6740    5.5160   19.8930 C   0  0  0  0  0
   -0.9650    6.6510   19.4760 C   0  0  0  0  0
   -1.6110    7.8990   19.4040 C   0  0  0  0  0
   -2.9750    8.0140   19.7580 C   0  0  0  0  0
   -3.6690    9.3600   19.6700 C   0  3  0  0  0
   -2.9760   10.4020   19.2870 N   0  0  0  0  0
   -4.9510    9.4660   19.9690 N   0  0  0  0  0
   -3.8050    4.3610   20.7070 C   0  0  0  0  0
   -3.7930    4.1530   22.2540 C   0  0  0  0  0
   -2.4690    4.5140   22.9040 C   0  0  0  0  0
   -2.4170    5.6590   23.3450 O   0  0  0  0  0
   -1.4140    3.6780   23.0210 N   0  0  0  0  0
   -1.5090    2.3460   22.4450 C   0  0  0  0  0
   -1.0240    1.3160   23.4920 C   0  0  0  0  0
    0.3360    3.1580   24.6370 C   0  0  0  0  0
   -0.1640    4.1730   23.5710 C   0  0  0  0  0
    0.3750    1.7080   24.0550 C   0  0  0  0  0
    0.7960    0.8060   25.0540 C   0  0  0  0  0
    0.1850   -0.1870   25.4370 O   0  0  0  0  0
    1.9990    1.1680   25.5360 O   0  0  0  0  0
    2.1760    0.9340   26.9510 C   0  0  0  0  0
   -4.8630    4.9280   22.8860 N   0  0  0  0  0
   -5.7780    4.2560   24.1930 S   0  0  0  0  0
   -6.7940    5.2050   24.5670 O   0  0  0  0  0
   -6.1130    2.9050   23.9020 O   0  0  0  0  0
   -4.5700    4.2890   25.4220 C   0  0  0  0  0
   -4.2840    5.5260   26.0170 C   0  0  0  0  0
   -3.3060    5.6250   27.0190 C   0  0  0  0  0
   -2.8900    3.2070   26.8370 C   0  0  0  0  0
   -2.6000    4.4590   27.4390 C   0  0  0  0  0
   -3.8950    3.1320   25.8170 C   0  0  0  0  0
   -1.6050    4.5230   28.4600 C   0  0  0  0  0
   -0.9040    3.3530   28.8800 C   0  0  0  0  0
   -1.2080    2.1070   28.2660 C   0  0  0  0  0
   -2.1910    2.0370   27.2620 C   0  0  0  0  0
   -1.9785   10.2990   19.0520 H   0  0  0  0  0
   -5.4804    8.6348   20.2687 H   0  0  0  0  0
   -5.4215   10.3799   19.9025 H   0  0  0  0  0
   -3.3503    3.4781   20.2341 H   0  0  0  0  0
   -4.8501    4.4562   20.3773 H   0  0  0  0  0
   -3.9799    3.0859   22.4446 H   0  0  0  0  0
   -0.8773    2.2856   21.5465 H   0  0  0  0  0
   -2.5537    2.1338   22.1738 H   0  0  0  0  0
   -0.9562    0.3258   23.0178 H   0  0  0  0  0
   -1.7469    1.2773   24.3202 H   0  0  0  0  0
    1.3483    3.4438   24.9588 H   0  0  0  0  0
   -0.3437    3.1804   25.5016 H   0  0  0  0  0
   -0.3267    5.1547   24.0397 H   0  0  0  0  0
    0.5831    4.2687   22.7693 H   0  0  0  0  0
    1.1018    1.6786   23.2298 H   0  0  0  0  0
    3.1827    1.2585   27.2532 H   0  0  0  0  0
    2.0577   -0.1389   27.1629 H   0  0  0  0  0
    1.4225    1.5043   27.5141 H   0  0  0  0  0
   -5.0664    5.8514   22.5604 H   0  0  0  0  0
   -4.8221    6.4123   25.7009 H   0  0  0  0  0
   -3.0878    6.5851   27.4724 H   0  0  0  0  0
   -4.1300    2.1804   25.3541 H   0  0  0  0  0
   -1.3779    5.4759   28.9241 H   0  0  0  0  0
   -0.1501    3.4134   29.6565 H   0  0  0  0  0
   -0.6817    1.2100   28.5719 H   0  0  0  0  0
   -2.4209    1.0814   26.8048 H   0  0  0  0  0
  7  1  1  0  0  0
  8  2  1  0  0  0
  9  3  1  0  0  0
 10  4  1  0  0  0
  6 15  1  0  0  0
  6  8  4  0  0  0
  7  6  4  0  0  0
 11  7  4  0  0  0
 11 12  1  0  0  0
 10 11  4  0  0  0
 10  9  4  0  0  0
  9  8  4  0  0  0
 12 14  1  0  0  0
 12 13  1  0  0  0
 15 16  1  0  0  0
 16 29  1  0  0  0
 16 17  1  0  0  0
 17 19  1  0  0  0
 17 18  2  0  0  0
 19 23  1  0  0  0
 19 20  1  0  0  0
 20 21  1  0  0  0
 21 24  1  0  0  0
 24 22  1  0  0  0
 24 25  1  0  0  0
 25 27  1  0  0  0
 25 26  2  0  0  0
 27 28  1  0  0  0
 22 23  1  0  0  0
 29 30  1  0  0  0
 30 33  1  0  0  0
 30 32  2  0  0  0
 30 31  2  0  0  0
 33 38  4  0  0  0
 33 34  4  0  0  0
 34 35  4  0  0  0
 35 37  4  0  0  0
 37 36  4  0  0  0
 37 39  4  0  0  0
 39 40  4  0  0  0
 40 41  4  0  0  0
 41 42  4  0  0  0
 42 36  4  0  0  0
 36 38  4  0  0  0
 13  5  1  0  0  0
 13 43  1  0  0  0
 14 44  1  0  0  0
 14 45  1  0  0  0
 15 46  1  0  0  0
 15 47  1  0  0  0
 16 48  1  0  0  0
 20 49  1  0  0  0
 20 50  1  0  0  0
 21 51  1  0  0  0
 21 52  1  0  0  0
 22 53  1  0  0  0
 22 54  1  0  0  0
 23 55  1  0  0  0
 23 56  1  0  0  0
 24 57  1  0  0  0
 28 58  1  0  0  0
 28 59  1  0  0  0
 28 60  1  0  0  0
 29 61  1  0  0  0
 34 62  1  0  0  0
 35 63  1  0  0  0
 38 64  1  0  0  0
 39 65  1  0  0  0
 40 66  1  0  0  0
 41 67  1  0  0  0
 42 68  1  0  0  0
M  END
$$$$
