### 
### Created by X-TOOL on Tue Oct 25 01:26:59 2005
### 

@<TRIPOS>MOLECULE
1k1j_ligand
   68    71     1     0     0
SMALL
GAST_HUCK


@<TRIPOS>ATOM
      1 H71        -4.7264    6.9411   20.4494 H         1 SUB1        0.060
      2 H81        -1.1706    4.5573   19.9437 H         1 SUB1        0.056
      3 H91         0.0822    6.5672   19.2087 H         1 SUB1        0.060
      4 H101       -1.0617    8.7742   19.0764 H         1 SUB1        0.061
      5 H131       -3.4281   11.3251   19.2206 H         1 SUB1        0.192
      6 C65        -3.0350    5.6090   20.2470 C.ar      1 SUB1       -0.034
      7 C66        -3.6800    6.8610   20.1780 C.ar      1 SUB1       -0.005
      8 C64        -1.6740    5.5160   19.8930 C.ar      1 SUB1       -0.060
      9 C63        -0.9650    6.6510   19.4760 C.ar      1 SUB1       -0.064
     10 C62        -1.6110    7.8990   19.4040 C.ar      1 SUB1       -0.014
     11 C61        -2.9750    8.0140   19.7580 C.ar      1 SUB1        0.179
     12 C25        -3.6690    9.3600   19.6700 C.cat     1 SUB1        0.315
     13 N43        -2.9760   10.4020   19.2870 N.pl3     1 SUB1       -0.200
     14 N54        -4.9510    9.4660   19.9690 N.pl3     1 SUB1       -0.200
     15 C34        -3.8050    4.3610   20.7070 C.3       1 SUB1        0.018
     16 C31        -3.7930    4.1530   22.2540 C.3       1 SUB1        0.136
     17 C35        -2.4690    4.5140   22.9040 C.2       1 SUB1        0.202
     18 O36        -2.4170    5.6590   23.3450 O.2       1 SUB1       -0.395
     19 N81        -1.4140    3.6780   23.0210 N.am      1 SUB1       -0.271
     20 C71        -1.5090    2.3460   22.4450 C.3       1 SUB1        0.036
     21 C72        -1.0240    1.3160   23.4920 C.3       1 SUB1       -0.011
     22 C74         0.3360    3.1580   24.6370 C.3       1 SUB1       -0.011
     23 C75        -0.1640    4.1730   23.5710 C.3       1 SUB1        0.036
     24 C40         0.3750    1.7080   24.0550 C.3       1 SUB1        0.064
     25 C48         0.7960    0.8060   25.0540 C.2       1 SUB1        0.237
     26 O49         0.1850   -0.1870   25.4370 O.2       1 SUB1       -0.370
     27 O55         1.9990    1.1680   25.5360 O.3       1 SUB1       -0.280
     28 C99         2.1760    0.9340   26.9510 C.3       1 SUB1        0.066
     29 N29        -4.8630    4.9280   22.8860 N.am      1 SUB1       -0.223
     30 S12        -5.7780    4.2560   24.1930 S.o2      1 SUB1        0.071
     31 O32        -6.7940    5.2050   24.5670 O.2       1 SUB1       -0.150
     32 O33        -6.1130    2.9050   23.9020 O.2       1 SUB1       -0.150
     33 C2         -4.5700    4.2890   25.4220 C.ar      1 SUB1        0.109
     34 C3         -4.2840    5.5260   26.0170 C.ar      1 SUB1       -0.034
     35 C4         -3.3060    5.6250   27.0190 C.ar      1 SUB1       -0.052
     36 C9         -2.8900    3.2070   26.8370 C.ar      1 SUB1       -0.016
     37 C10        -2.6000    4.4590   27.4390 C.ar      1 SUB1       -0.018
     38 C1         -3.8950    3.1320   25.8170 C.ar      1 SUB1       -0.027
     39 C5         -1.6050    4.5230   28.4600 C.ar      1 SUB1       -0.054
     40 C6         -0.9040    3.3530   28.8800 C.ar      1 SUB1       -0.061
     41 C7         -1.2080    2.1070   28.2660 C.ar      1 SUB1       -0.061
     42 C8         -2.1910    2.0370   27.2620 C.ar      1 SUB1       -0.054
     43 H132       -1.9785   10.2990   19.0520 H         1 SUB1        0.192
     44 H141       -5.4804    8.6348   20.2687 H         1 SUB1        0.192
     45 H142       -5.4215   10.3799   19.9025 H         1 SUB1        0.192
     46 H151       -3.3503    3.4781   20.2341 H         1 SUB1        0.047
     47 H152       -4.8501    4.4562   20.3773 H         1 SUB1        0.047
     48 H161       -3.9799    3.0859   22.4446 H         1 SUB1        0.078
     49 H201       -0.8773    2.2856   21.5465 H         1 SUB1        0.052
     50 H202       -2.5537    2.1338   22.1738 H         1 SUB1        0.052
     51 H211       -0.9562    0.3258   23.0178 H         1 SUB1        0.031
     52 H212       -1.7469    1.2773   24.3202 H         1 SUB1        0.031
     53 H221        1.3483    3.4438   24.9588 H         1 SUB1        0.031
     54 H222       -0.3437    3.1804   25.5016 H         1 SUB1        0.031
     55 H231       -0.3267    5.1547   24.0397 H         1 SUB1        0.052
     56 H232        0.5831    4.2687   22.7693 H         1 SUB1        0.052
     57 H241        1.1018    1.6786   23.2298 H         1 SUB1        0.056
     58 H281        3.1827    1.2585   27.2532 H         1 SUB1        0.058
     59 H282        2.0577   -0.1389   27.1629 H         1 SUB1        0.058
     60 H283        1.4225    1.5043   27.5141 H         1 SUB1        0.058
     61 H291       -5.0664    5.8514   22.5604 H         1 SUB1        0.171
     62 H341       -4.8221    6.4123   25.7009 H         1 SUB1        0.064
     63 H351       -3.0878    6.5851   27.4724 H         1 SUB1        0.062
     64 H381       -4.1300    2.1804   25.3541 H         1 SUB1        0.064
     65 H391       -1.3779    5.4759   28.9241 H         1 SUB1        0.062
     66 H401       -0.1501    3.4134   29.6565 H         1 SUB1        0.062
     67 H411       -0.6817    1.2100   28.5719 H         1 SUB1        0.062
     68 H421       -2.4209    1.0814   26.8048 H         1 SUB1        0.062
@<TRIPOS>BOND
     1    7    1 1  
     2    8    2 1  
     3    9    3 1  
     4   10    4 1  
     5    6   15 1  
     6    6    8 ar 
     7    7    6 ar 
     8   11    7 ar 
     9   11   12 1  
    10   10   11 ar 
    11   10    9 ar 
    12    9    8 ar 
    13   12   14 1  
    14   12   13 1  
    15   15   16 1  
    16   16   29 1  
    17   16   17 1  
    18   17   19 am 
    19   17   18 2  
    20   19   23 1  
    21   19   20 1  
    22   20   21 1  
    23   21   24 1  
    24   24   22 1  
    25   24   25 1  
    26   25   27 1  
    27   25   26 2  
    28   27   28 1  
    29   22   23 1  
    30   29   30 1  
    31   30   33 1  
    32   30   32 2  
    33   30   31 2  
    34   33   38 ar 
    35   33   34 ar 
    36   34   35 ar 
    37   35   37 ar 
    38   37   36 ar 
    39   37   39 ar 
    40   39   40 ar 
    41   40   41 ar 
    42   41   42 ar 
    43   42   36 ar 
    44   36   38 ar 
    45   13    5 1  
    46   13   43 1  
    47   14   44 1  
    48   14   45 1  
    49   15   46 1  
    50   15   47 1  
    51   16   48 1  
    52   20   49 1  
    53   20   50 1  
    54   21   51 1  
    55   21   52 1  
    56   22   53 1  
    57   22   54 1  
    58   23   55 1  
    59   23   56 1  
    60   24   57 1  
    61   28   58 1  
    62   28   59 1  
    63   28   60 1  
    64   29   61 1  
    65   34   62 1  
    66   35   63 1  
    67   38   64 1  
    68   39   65 1  
    69   40   66 1  
    70   41   67 1  
    71   42   68 1  
@<TRIPOS>SUBSTRUCTURE
     1 SUB1        1 GROUP

