### 
### Created by X-TOOL on Mon Oct 24 22:27:42 2005
### 

@<TRIPOS>MOLECULE
1ppm_ligand
   81    82     1     0     0
SMALL
GAST_HUCK


@<TRIPOS>ATOM
      1 H501       18.1492    5.7360   17.4116 H         1 SUB1        0.190
      2 H511       19.3734    4.9184   19.9433 H         1 SUB1        0.080
      3 H541       20.1473    6.8040   17.6033 H         1 SUB1        0.028
      4 H542       20.4734    5.0381   17.6436 H         1 SUB1        0.028
      5 H543       21.2938    6.1297   18.8106 H         1 SUB1        0.028
      6 H551       20.4403    6.5070   21.3070 H         1 SUB1        0.188
      7 H561       19.3388    9.2733   21.1961 H         1 SUB1        0.080
      8 H591       19.3056    7.5932   23.7444 H         1 SUB1        0.028
      9 H592       17.8775    8.1440   22.8043 H         1 SUB1        0.028
     10 H593       18.9302    9.3458   23.6252 H         1 SUB1        0.028
     11 H431       13.8884    5.6319   18.2987 H         1 SUB1        0.078
     12 H432       14.7347    5.0597   19.7762 H         1 SUB1        0.078
     13 H451       13.3159    3.3013   20.5554 H         1 SUB1        0.056
     14 H461       14.5483    3.5002   16.4339 H         1 SUB1        0.056
     15 H471       12.3915    1.0319   20.2097 H         1 SUB1        0.060
     16 H481       13.6169    1.1965   16.0630 H         1 SUB1        0.060
     17 H491       12.4728    0.0257   17.9439 H         1 SUB1        0.056
     18 H601       23.7188    9.5021   22.0268 H         1 SUB1        0.062
     19 H611       25.1130    9.4912   20.0439 H         1 SUB1        0.029
     20 H612       23.7386    9.9725   18.9923 H         1 SUB1        0.029
     21 H621       22.6892    7.7160   19.3870 H         1 SUB1        0.030
     22 H631       24.3478    6.5556   17.9228 H         1 SUB1        0.023
     23 H632       25.5739    7.7975   18.3481 H         1 SUB1        0.023
     24 H633       24.1018    8.2658   17.4314 H         1 SUB1        0.023
     25 H641       23.7007    7.1848   21.5959 H         1 SUB1        0.023
     26 H642       25.3302    7.1107   20.8437 H         1 SUB1        0.023
     27 H643       24.0793    5.9011   20.3979 H         1 SUB1        0.023
     28 H651       21.3553    9.8499   20.2847 H         1 SUB1        0.186
     29 H691       24.1981   13.6422   22.8994 H         1 SUB1        0.093
     30 H701       21.8236   14.3463   23.1732 H         1 SUB1        0.048
     31 H702       22.7639   14.7141   24.6589 H         1 SUB1        0.048
     32 H721       22.1529   14.0428   26.6576 H         1 SUB1        0.056
     33 H731       20.3216   12.1138   23.2935 H         1 SUB1        0.056
     34 H741       20.6040   12.9044   28.2079 H         1 SUB1        0.060
     35 H751       18.7377   11.0332   24.8253 H         1 SUB1        0.060
     36 H761       18.9279   11.3417   27.2572 H         1 SUB1        0.056
     37 H781       25.8923   13.8558   27.2964 H         1 SUB1        0.058
     38 H782       26.6402   12.7570   26.0882 H         1 SUB1        0.058
     39 H783       25.4003   12.1296   27.2265 H         1 SUB1        0.058
     40 C          16.9610    5.0560   18.8390 C.2       1 SUB1        0.324
     41 O          16.7860    4.7930   20.0630 O.2       1 SUB1       -0.377
     42 OA         15.8380    4.9040   17.9920 O.3       1 SUB1       -0.251
     43 CB         14.5710    4.8710   18.7050 C.3       1 SUB1        0.111
     44 CG         13.9910    3.4940   18.5040 C.ar      1 SUB1       -0.013
     45 CD1        13.3750    2.8280   19.5820 C.ar      1 SUB1       -0.058
     46 CD2        14.0800    2.9530   17.2440 C.ar      1 SUB1       -0.058
     47 CE1        12.8490    1.5710   19.3880 C.ar      1 SUB1       -0.068
     48 CE2        13.5460    1.6690   17.0360 C.ar      1 SUB1       -0.068
     49 CZ         12.9150    1.0010   18.1120 C.ar      1 SUB1       -0.069
     50 N          18.0710    5.5250   18.3860 N.am      1 SUB1       -0.241
     51 CA         19.2050    5.7540   19.2480 C.3       1 SUB1        0.130
     52 C          19.0300    7.1030   20.0120 C.2       1 SUB1        0.204
     53 O          18.1610    7.9500   19.6020 O.2       1 SUB1       -0.394
     54 CB         20.3620    5.9450   18.2560 C.3       1 SUB1       -0.024
     55 N          19.8180    7.2450   21.0460 N.am      1 SUB1       -0.264
     56 CA         19.7870    8.4860   21.8200 C.3       1 SUB1        0.128
     57 C          21.2480    8.8500   22.0540 C.2       1 SUB1        0.202
     58 O          21.8100    8.4710   23.0590 O.2       1 SUB1       -0.394
     59 CB         18.9120    8.3850   23.0900 C.3       1 SUB1       -0.024
     60 CA         23.2710    9.9450   21.1250 C.3       1 SUB1        0.097
     61 CB         24.0340    9.3730   19.8660 C.3       1 SUB1       -0.022
     62 CG         23.7680    7.8770   19.5290 C.3       1 SUB1       -0.044
     63 CD1        24.4990    7.6050   18.2160 C.3       1 SUB1       -0.063
     64 CD2        24.2550    6.9510   20.6750 C.3       1 SUB1       -0.063
     65 N          21.8890    9.5680   21.0820 N.am      1 SUB1       -0.276
     66 P          23.4550   11.7720   21.2390 P.3       1 SUB1        0.153
     67 O          22.5280   12.3220   20.3070 O.co2     1 SUB1       -0.543
     68 OH         24.8350   12.0870   21.2500 O.co2     1 SUB1       -0.543
     69 CA         23.5110   13.0420   23.5140 C.3       1 SUB1        0.184
     70 CB         22.3440   13.9090   24.0380 C.3       1 SUB1        0.030
     71 CG         21.3350   13.1520   24.8640 C.ar      1 SUB1       -0.038
     72 CD1        21.4040   13.3650   26.2640 C.ar      1 SUB1       -0.060
     73 CD2        20.3830   12.2980   24.3600 C.ar      1 SUB1       -0.060
     74 CE1        20.5450   12.7340   27.1390 C.ar      1 SUB1       -0.069
     75 CE2        19.5110   11.6810   25.2220 C.ar      1 SUB1       -0.069
     76 CZ         19.6040   11.8740   26.5980 C.ar      1 SUB1       -0.069
     77 C          24.2320   12.4970   24.7390 C.2       1 SUB1        0.269
     78 CS         25.7140   12.9990   26.6300 C.3       1 SUB1        0.066
     79 OP         22.9550   11.9420   22.7180 O.3       1 SUB1       -0.302
     80 OS         24.7390   13.3130   25.7410 O.3       1 SUB1       -0.278
     81 O          24.4070   11.3200   24.9200 O.2       1 SUB1       -0.367
@<TRIPOS>BOND
     1   50    1 1  
     2   51    2 1  
     3   54    3 1  
     4   54    4 1  
     5   54    5 1  
     6   55    6 1  
     7   56    7 1  
     8   59    8 1  
     9   59    9 1  
    10   59   10 1  
    11   43   11 1  
    12   43   12 1  
    13   45   13 1  
    14   46   14 1  
    15   47   15 1  
    16   48   16 1  
    17   49   17 1  
    18   60   18 1  
    19   61   19 1  
    20   61   20 1  
    21   62   21 1  
    22   63   22 1  
    23   63   23 1  
    24   63   24 1  
    25   64   25 1  
    26   64   26 1  
    27   64   27 1  
    28   65   28 1  
    29   69   29 1  
    30   70   30 1  
    31   70   31 1  
    32   72   32 1  
    33   73   33 1  
    34   74   34 1  
    35   75   35 1  
    36   76   36 1  
    37   78   37 1  
    38   78   38 1  
    39   78   39 1  
    40   51   50 1  
    41   51   54 1  
    42   52   51 1  
    43   52   53 2  
    44   56   55 1  
    45   56   59 1  
    46   57   56 1  
    47   57   58 2  
    48   55   52 am 
    49   40   41 2  
    50   40   42 1  
    51   50   40 am 
    52   42   43 1  
    53   43   44 1  
    54   44   45 ar 
    55   44   46 ar 
    56   45   47 ar 
    57   46   48 ar 
    58   47   49 ar 
    59   48   49 ar 
    60   60   61 1  
    61   60   65 1  
    62   66   60 1  
    63   61   62 1  
    64   62   63 1  
    65   62   64 1  
    66   65   57 am 
    67   66   67 2  
    68   66   68 2  
    69   69   70 1  
    70   77   69 1  
    71   69   79 1  
    72   70   71 1  
    73   71   72 ar 
    74   71   73 ar 
    75   72   74 ar 
    76   73   75 ar 
    77   74   76 ar 
    78   75   76 ar 
    79   80   77 1  
    80   77   81 2  
    81   79   66 1  
    82   80   78 1  
@<TRIPOS>SUBSTRUCTURE
     1 SUB1        1 GROUP

