1ppm_ligand
  -I-interpret- 

 81 82  0  0  0  0  0  0  0  0999 V2000
   18.1492    5.7360   17.4116 H   0  0  0  0  0
   19.3734    4.9184   19.9433 H   0  0  0  0  0
   20.1473    6.8040   17.6033 H   0  0  0  0  0
   20.4734    5.0381   17.6436 H   0  0  0  0  0
   21.2938    6.1297   18.8106 H   0  0  0  0  0
   20.4403    6.5070   21.3070 H   0  0  0  0  0
   19.3388    9.2733   21.1961 H   0  0  0  0  0
   19.3056    7.5932   23.7444 H   0  0  0  0  0
   17.8775    8.1440   22.8043 H   0  0  0  0  0
   18.9302    9.3458   23.6252 H   0  0  0  0  0
   13.8884    5.6319   18.2987 H   0  0  0  0  0
   14.7347    5.0597   19.7762 H   0  0  0  0  0
   13.3159    3.3013   20.5554 H   0  0  0  0  0
   14.5483    3.5002   16.4339 H   0  0  0  0  0
   12.3915    1.0319   20.2097 H   0  0  0  0  0
   13.6169    1.1965   16.0630 H   0  0  0  0  0
   12.4728    0.0257   17.9439 H   0  0  0  0  0
   23.7188    9.5021   22.0268 H   0  0  0  0  0
   25.1130    9.4912   20.0439 H   0  0  0  0  0
   23.7386    9.9725   18.9923 H   0  0  0  0  0
   22.6892    7.7160   19.3870 H   0  0  0  0  0
   24.3478    6.5556   17.9228 H   0  0  0  0  0
   25.5739    7.7975   18.3481 H   0  0  0  0  0
   24.1018    8.2658   17.4314 H   0  0  0  0  0
   23.7007    7.1848   21.5959 H   0  0  0  0  0
   25.3302    7.1107   20.8437 H   0  0  0  0  0
   24.0793    5.9011   20.3979 H   0  0  0  0  0
   21.3553    9.8499   20.2847 H   0  0  0  0  0
   24.1981   13.6422   22.8994 H   0  0  0  0  0
   21.8236   14.3463   23.1732 H   0  0  0  0  0
   22.7639   14.7141   24.6589 H   0  0  0  0  0
   22.1529   14.0428   26.6576 H   0  0  0  0  0
   20.3216   12.1138   23.2935 H   0  0  0  0  0
   20.6040   12.9044   28.2079 H   0  0  0  0  0
   18.7377   11.0332   24.8253 H   0  0  0  0  0
   18.9279   11.3417   27.2572 H   0  0  0  0  0
   25.8923   13.8558   27.2964 H   0  0  0  0  0
   26.6402   12.7570   26.0882 H   0  0  0  0  0
   25.4003   12.1296   27.2265 H   0  0  0  0  0
   16.9610    5.0560   18.8390 C   0  0  0  0  0
   16.7860    4.7930   20.0630 O   0  0  0  0  0
   15.8380    4.9040   17.9920 O   0  0  0  0  0
   14.5710    4.8710   18.7050 C   0  0  0  0  0
   13.9910    3.4940   18.5040 C   0  0  0  0  0
   13.3750    2.8280   19.5820 C   0  0  0  0  0
   14.0800    2.9530   17.2440 C   0  0  0  0  0
   12.8490    1.5710   19.3880 C   0  0  0  0  0
   13.5460    1.6690   17.0360 C   0  0  0  0  0
   12.9150    1.0010   18.1120 C   0  0  0  0  0
   18.0710    5.5250   18.3860 N   0  0  0  0  0
   19.2050    5.7540   19.2480 C   0  0  0  0  0
   19.0300    7.1030   20.0120 C   0  0  0  0  0
   18.1610    7.9500   19.6020 O   0  0  0  0  0
   20.3620    5.9450   18.2560 C   0  0  0  0  0
   19.8180    7.2450   21.0460 N   0  0  0  0  0
   19.7870    8.4860   21.8200 C   0  0  0  0  0
   21.2480    8.8500   22.0540 C   0  0  0  0  0
   21.8100    8.4710   23.0590 O   0  0  0  0  0
   18.9120    8.3850   23.0900 C   0  0  0  0  0
   23.2710    9.9450   21.1250 C   0  0  0  0  0
   24.0340    9.3730   19.8660 C   0  0  0  0  0
   23.7680    7.8770   19.5290 C   0  0  0  0  0
   24.4990    7.6050   18.2160 C   0  0  0  0  0
   24.2550    6.9510   20.6750 C   0  0  0  0  0
   21.8890    9.5680   21.0820 N   0  0  0  0  0
   23.4550   11.7720   21.2390 P   0  0  0  0  0
   22.5280   12.3220   20.3070 O   0  5  0  0  0
   24.8350   12.0870   21.2500 O   0  0  0  0  0
   23.5110   13.0420   23.5140 C   0  0  0  0  0
   22.3440   13.9090   24.0380 C   0  0  0  0  0
   21.3350   13.1520   24.8640 C   0  0  0  0  0
   21.4040   13.3650   26.2640 C   0  0  0  0  0
   20.3830   12.2980   24.3600 C   0  0  0  0  0
   20.5450   12.7340   27.1390 C   0  0  0  0  0
   19.5110   11.6810   25.2220 C   0  0  0  0  0
   19.6040   11.8740   26.5980 C   0  0  0  0  0
   24.2320   12.4970   24.7390 C   0  0  0  0  0
   25.7140   12.9990   26.6300 C   0  0  0  0  0
   22.9550   11.9420   22.7180 O   0  0  0  0  0
   24.7390   13.3130   25.7410 O   0  0  0  0  0
   24.4070   11.3200   24.9200 O   0  0  0  0  0
 50  1  1  0  0  0
 51  2  1  0  0  0
 54  3  1  0  0  0
 54  4  1  0  0  0
 54  5  1  0  0  0
 55  6  1  0  0  0
 56  7  1  0  0  0
 59  8  1  0  0  0
 59  9  1  0  0  0
 59 10  1  0  0  0
 43 11  1  0  0  0
 43 12  1  0  0  0
 45 13  1  0  0  0
 46 14  1  0  0  0
 47 15  1  0  0  0
 48 16  1  0  0  0
 49 17  1  0  0  0
 60 18  1  0  0  0
 61 19  1  0  0  0
 61 20  1  0  0  0
 62 21  1  0  0  0
 63 22  1  0  0  0
 63 23  1  0  0  0
 63 24  1  0  0  0
 64 25  1  0  0  0
 64 26  1  0  0  0
 64 27  1  0  0  0
 65 28  1  0  0  0
 69 29  1  0  0  0
 70 30  1  0  0  0
 70 31  1  0  0  0
 72 32  1  0  0  0
 73 33  1  0  0  0
 74 34  1  0  0  0
 75 35  1  0  0  0
 76 36  1  0  0  0
 78 37  1  0  0  0
 78 38  1  0  0  0
 78 39  1  0  0  0
 51 50  1  0  0  0
 51 54  1  0  0  0
 52 51  1  0  0  0
 52 53  2  0  0  0
 56 55  1  0  0  0
 56 59  1  0  0  0
 57 56  1  0  0  0
 57 58  2  0  0  0
 55 52  1  0  0  0
 40 41  2  0  0  0
 40 42  1  0  0  0
 50 40  1  0  0  0
 42 43  1  0  0  0
 43 44  1  0  0  0
 44 45  4  0  0  0
 44 46  4  0  0  0
 45 47  4  0  0  0
 46 48  4  0  0  0
 47 49  4  0  0  0
 48 49  4  0  0  0
 60 61  1  0  0  0
 60 65  1  0  0  0
 66 60  1  0  0  0
 61 62  1  0  0  0
 62 63  1  0  0  0
 62 64  1  0  0  0
 65 57  1  0  0  0
 66 67  1  0  0  0
 66 68  2  0  0  0
 69 70  1  0  0  0
 77 69  1  0  0  0
 69 79  1  0  0  0
 70 71  1  0  0  0
 71 72  4  0  0  0
 71 73  4  0  0  0
 72 74  4  0  0  0
 73 75  4  0  0  0
 74 76  4  0  0  0
 75 76  4  0  0  0
 80 77  1  0  0  0
 77 81  2  0  0  0
 79 66  1  0  0  0
 80 78  1  0  0  0
M  END
$$$$
