### 
### Created by X-TOOL on Mon Oct 24 23:56:30 2005
### 

@<TRIPOS>MOLECULE
1egh_ligand
   11    10     1     0     0
SMALL
GAST_HUCK


@<TRIPOS>ATOM
      1 P          84.1830  -12.3000   66.6850 P.3       1 SUB1        0.208
      2 O1P        85.3810  -13.1100   65.9940 O.3       1 SUB1       -0.306
      3 O2P        84.6390  -12.2180   68.0790 O.co2     1 SUB1       -0.535
      4 O3P        84.1630  -11.0260   65.8950 O.co2     1 SUB1       -0.535
      5 O4P        82.9580  -13.1100   66.5040 O.co2     1 SUB1       -0.535
      6 C2         85.7690  -14.3460   66.5540 C.3       1 SUB1        0.106
      7 C1         86.3070  -15.2870   65.5050 C.2       1 SUB1        0.058
      8 O1         85.5590  -15.5910   64.5500 O.co2     1 SUB1       -0.564
      9 O2         87.4780  -15.7190   65.6330 O.co2     1 SUB1       -0.564
     10 H61        84.8953  -14.8098   67.0351 H         1 SUB1        0.083
     11 H62        86.5504  -14.1670   67.3072 H         1 SUB1        0.083
@<TRIPOS>BOND
     1    1    5 2  
     2    1    4 2  
     3    1    3 2  
     4    1    2 1  
     5    2    6 1  
     6    6    7 1  
     7    7    9 2  
     8    7    8 2  
     9    6   10 1  
    10    6   11 1  
@<TRIPOS>SUBSTRUCTURE
     1 SUB1        1 GROUP

