1gj4_ligand
  -I-interpret- 

 43 46  0  0  0  0  0  0  0  0999 V2000
   13.6640   -9.3593   21.9255 H   0  0  0  0  0
   11.1909  -13.6090   22.5824 H   0  0  0  0  0
    9.3482  -13.1234   25.2922 H   0  0  0  0  0
   10.2779  -13.7510   23.9049 H   0  0  0  0  0
   10.7343   -9.9114   25.1111 H   0  0  0  0  0
    9.6330  -11.0086   25.9863 H   0  0  0  0  0
   14.7085  -10.8240   19.8021 H   0  0  0  0  0
   12.6697  -14.4443   20.3892 H   0  0  0  0  0
   13.8630  -15.2521   18.9422 H   0  0  0  0  0
   15.1463  -16.3207   17.1370 H   0  0  0  0  0
   16.6823  -14.9921   15.7690 H   0  0  0  0  0
   15.1905  -10.9132   18.8927 H   0  0  0  0  0
   15.8144  -11.1042   15.2616 H   0  0  0  0  0
   17.4302   -9.9165   13.8620 H   0  0  0  0  0
   19.6923  -10.5041   13.9556 H   0  0  0  0  0
   20.5175  -12.5661   15.1598 H   0  0  0  0  0
   11.5230  -11.6140   23.3600 C   0  0  0  0  0
   12.1890  -10.3760   23.1510 C   0  0  0  0  0
   13.1160  -10.2800   22.0900 C   0  0  0  0  0
   13.3210  -11.3760   21.2570 C   0  0  0  0  0
   12.6510  -12.5330   21.4660 C   0  0  0  0  0
   11.7400  -12.6810   22.4710 C   0  0  0  0  0
   10.5960  -11.8030   24.3840 C   0  3  0  0  0
   10.0340  -12.9760   24.5380 N   0  0  0  0  0
   10.3000  -10.8390   25.2200 N   0  0  0  0  0
   14.0960  -11.5480   20.2040 N   0  0  0  0  0
   13.0310  -13.4250   20.5170 C   0  0  0  0  0
   13.9790  -12.7650   19.7410 C   0  0  0  0  0
   14.6960  -13.2910   18.6550 C   0  0  0  0  0
   14.5530  -14.6550   18.3570 C   0  0  0  0  0
   15.2700  -15.2620   17.3340 C   0  0  0  0  0
   16.1340  -14.5180   16.5750 C   0  0  0  0  0
   16.3170  -13.1620   16.8250 C   0  0  0  0  0
   15.5920  -12.5090   17.8800 C   0  0  0  0  0
   15.7540  -11.1520   18.1660 O   0  0  0  0  0
   17.2420  -12.4990   16.0310 C   0  0  0  0  0
   16.8520  -11.4180   15.2550 C   0  0  0  0  0
   17.7500  -10.7440   14.4850 C   0  0  0  0  0
   18.9790  -11.1040   14.5090 C   0  0  0  0  0
   19.4800  -12.2590   15.2260 C   0  0  0  0  0
   18.5800  -12.9370   15.9860 C   0  0  0  0  0
   11.9940   -8.9580   24.2310 Cl  0  0  0  0  0
   18.8893  -13.8077   16.5529 H   0  0  0  0  0
 19  1  1  0  0  0
 22  2  1  0  0  0
 24  3  1  0  0  0
 24  4  1  0  0  0
 25  5  1  0  0  0
 25  6  1  0  0  0
 26  7  1  0  0  0
 27  8  1  0  0  0
 30  9  1  0  0  0
 31 10  1  0  0  0
 32 11  1  0  0  0
 35 12  1  0  0  0
 37 13  1  0  0  0
 38 14  1  0  0  0
 39 15  1  0  0  0
 40 16  1  0  0  0
 23 17  1  0  0  0
 17 22  4  0  0  0
 17 18  4  0  0  0
 18 19  4  0  0  0
 19 20  4  0  0  0
 20 26  1  0  0  0
 21 20  4  0  0  0
 21 27  1  0  0  0
 22 21  4  0  0  0
 27 28  2  0  0  0
 28 29  1  0  0  0
 26 28  1  0  0  0
 29 34  4  0  0  0
 29 30  4  0  0  0
 30 31  4  0  0  0
 31 32  4  0  0  0
 33 32  4  0  0  0
 33 36  4  0  0  0
 34 33  4  0  0  0
 34 35  1  0  0  0
 36 41  4  0  0  0
 36 37  4  0  0  0
 37 38  4  0  0  0
 38 39  4  0  0  0
 40 39  4  0  0  0
 41 40  4  0  0  0
 23 25  1  0  0  0
 23 24  1  0  0  0
 18 42  1  0  0  0
 41 43  1  0  0  0
M  END
$$$$
