2bmz_ligand
  -I-interpret- 

 44 45  0  0  0  0  0  0  0  0999 V2000
   10.7640   30.4300   44.9380 C   0  0  0  0  0
   11.2520   28.9740   44.9610 C   0  0  0  0  0
   12.3540   28.8310   46.0180 C   0  0  0  0  0
   13.5040   29.7960   45.6760 C   0  0  0  0  0
   12.9580   31.2570   45.6300 C   0  0  0  0  0
   10.1670   28.0910   45.2560 O   0  0  0  0  0
   12.8230   27.4810   46.0600 O   0  0  0  0  0
   14.5430   29.6870   46.6360 O   0  0  0  0  0
   11.8630   31.3500   44.6350 O   0  0  0  0  0
    6.8010   32.9380   44.0950 C   0  0  0  0  0
    7.6140   31.6220   44.2600 C   0  0  0  0  0
    9.1120   31.8510   43.9190 C   0  0  0  0  0
    9.2300   32.3960   42.5060 C   0  0  0  0  0
    8.4010   33.7030   42.3630 C   0  0  0  0  0
    8.4420   34.2480   40.9420 C   0  0  0  0  0
    6.5710   35.1690   45.0100 C   0  0  0  0  0
    7.2710   33.8840   45.0460 O   0  0  0  0  0
    7.1170   30.6460   43.3510 O   0  0  0  0  0
    9.7820   30.5600   43.9720 O   0  0  0  0  0
   10.5900   32.6250   42.1770 O   0  0  0  0  0
    6.9960   33.4420   42.7330 O   0  0  0  0  0
    8.0150   33.2620   40.0040 O   0  0  0  0  0
   10.3449   30.6842   45.9227 H   0  0  0  0  0
   11.6631   28.7160   43.9739 H   0  0  0  0  0
   11.9448   29.0953   47.0043 H   0  0  0  0  0
   13.9077   29.5342   44.6868 H   0  0  0  0  0
   13.7701   31.9421   45.3451 H   0  0  0  0  0
   12.5746   31.5355   46.6227 H   0  0  0  0  0
    9.4918   28.1889   44.5950 H   0  0  0  0  0
   12.1001   26.9023   46.2721 H   0  0  0  0  0
   14.8649   28.7933   46.6525 H   0  0  0  0  0
    5.7321   32.7427   44.2663 H   0  0  0  0  0
    7.5181   31.2598   45.2942 H   0  0  0  0  0
    9.5653   32.5513   44.6360 H   0  0  0  0  0
    8.8247   31.6486   41.8081 H   0  0  0  0  0
    8.8192   34.4593   43.0435 H   0  0  0  0  0
    9.4721   34.5503   40.7022 H   0  0  0  0  0
    7.7777   35.1220   40.8726 H   0  0  0  0  0
    6.9944   35.8386   45.7731 H   0  0  0  0  0
    5.5019   35.0100   45.2142 H   0  0  0  0  0
    6.6908   35.6241   44.0158 H   0  0  0  0  0
    7.6096   29.8400   43.4530 H   0  0  0  0  0
   11.0780   31.8153   42.2708 H   0  0  0  0  0
    7.1242   33.0002   40.2049 H   0  0  0  0  0
  1  2  1  0  0  0
  1  9  1  0  0  0
 19  1  1  0  0  0
  2  3  1  0  0  0
  2  6  1  0  0  0
  3  4  1  0  0  0
  3  7  1  0  0  0
  5  4  1  0  0  0
  4  8  1  0  0  0
  9  5  1  0  0  0
 11 10  1  0  0  0
 10 17  1  0  0  0
 10 21  1  0  0  0
 12 11  1  0  0  0
 11 18  1  0  0  0
 12 13  1  0  0  0
 12 19  1  0  0  0
 13 14  1  0  0  0
 13 20  1  0  0  0
 14 15  1  0  0  0
 14 21  1  0  0  0
 15 22  1  0  0  0
 17 16  1  0  0  0
  1 23  1  0  0  0
  2 24  1  0  0  0
  3 25  1  0  0  0
  4 26  1  0  0  0
  5 27  1  0  0  0
  5 28  1  0  0  0
  6 29  1  0  0  0
  7 30  1  0  0  0
  8 31  1  0  0  0
 10 32  1  0  0  0
 11 33  1  0  0  0
 12 34  1  0  0  0
 13 35  1  0  0  0
 14 36  1  0  0  0
 15 37  1  0  0  0
 15 38  1  0  0  0
 16 39  1  0  0  0
 16 40  1  0  0  0
 16 41  1  0  0  0
 18 42  1  0  0  0
 20 43  1  0  0  0
 22 44  1  0  0  0
M  END
$$$$
