### 
### Created by X-TOOL on Mon Oct 24 22:00:43 2005
### 

@<TRIPOS>MOLECULE
1o2n_ligand
   42    45     1     0     0
SMALL
GAST_HUCK


@<TRIPOS>ATOM
      1 C1         44.0050   -3.0860   25.8460 C.ar      1 SUB1        0.185
      2 C2         43.9260   -1.6580   25.7880 C.ar      1 SUB1        0.081
      3 CL2        43.8690   -0.6970   24.2750 Cl        1 SUB1       -0.074
      4 C3         43.8260   -0.9270   26.9940 C.ar      1 SUB1       -0.022
      5 C4         43.8060   -1.6100   28.2000 C.ar      1 SUB1        0.081
      6 C5         43.8730   -2.9430   28.2680 C.ar      1 SUB1        0.034
      7 C6         43.9770   -3.7180   27.1020 C.ar      1 SUB1       -0.007
      8 C7         44.1440   -3.8730   24.6740 C.cat     1 SUB1        0.310
      9 N1         43.7440   -5.1240   24.5990 N.pl3     1 SUB1       -0.201
     10 N2         44.7180   -3.2880   23.6550 N.pl3     1 SUB1       -0.201
     11 N3         43.7060   -1.2310   29.4370 N.pl3     1 SUB1       -0.251
     12 N4         43.8160   -3.4090   29.5060 N.2       1 SUB1       -0.310
     13 C8         43.7390   -2.2910   30.2130 C.2       1 SUB1        0.137
     14 C1'        43.5740   -2.2280   31.6150 C.ar      1 SUB1        0.067
     15 C2'        43.2160   -3.3600   32.3690 C.ar      1 SUB1       -0.051
     16 C3'        43.0430   -3.2690   33.7540 C.ar      1 SUB1       -0.066
     17 C4'        43.2110   -2.0590   34.3970 C.ar      1 SUB1       -0.057
     18 C5'        43.5800   -0.9280   33.6700 C.ar      1 SUB1        0.020
     19 C6'        43.7540   -1.0110   32.2820 C.ar      1 SUB1        0.120
     20 O6'        44.0890    0.1190   31.5480 O.3       1 SUB1       -0.323
     21 C1''       43.7660    0.2810   34.3380 C.ar      1 SUB1       -0.020
     22 C2''       44.7950    0.3870   35.2740 C.ar      1 SUB1       -0.057
     23 C3''       44.9900    1.5860   35.9620 C.ar      1 SUB1       -0.063
     24 C4''       44.1760    2.6770   35.7120 C.ar      1 SUB1       -0.063
     25 C5''       43.1740    2.5780   34.7750 C.ar      1 SUB1       -0.063
     26 C6''       42.9590    1.3830   34.0900 C.ar      1 SUB1       -0.057
     27 H41        43.7670    0.1510   26.9960 H         1 SUB1        0.055
     28 H71        44.0190   -4.7940   27.1870 H         1 SUB1        0.060
     29 H91        43.3380   -5.5430   25.4230 H         1 SUB1        0.192
     30 H92        43.8110   -5.7180   23.7990 H         1 SUB1        0.192
     31 H101       44.9740   -2.3200   23.7610 H         1 SUB1        0.192
     32 H102       44.8860   -3.7170   22.7740 H         1 SUB1        0.192
     33 H111       43.6690   -0.3180   29.8210 H         1 SUB1        0.229
     34 H151       43.0650   -4.3150   31.8930 H         1 SUB1        0.064
     35 H161       42.7630   -4.1380   34.3350 H         1 SUB1        0.054
     36 H171       43.0820   -2.0100   35.4720 H         1 SUB1        0.063
     37 H221       45.4310   -0.4620   35.4840 H         1 SUB1        0.061
     38 H231       45.7860    1.6600   36.6940 H         1 SUB1        0.061
     39 H241       44.3350    3.6010   36.2450 H         1 SUB1        0.060
     40 H251       42.5380    3.4270   34.5910 H         1 SUB1        0.061
     41 H261       42.1600    1.3120   33.3690 H         1 SUB1        0.061
     42 H201       44.1675   -0.1128   30.6300 H         1 SUB1        0.254
@<TRIPOS>BOND
     1    1    2 ar 
     2    1    7 ar 
     3    1    8 1  
     4    2    3 1  
     5    2    4 ar 
     6    4    5 ar 
     7    4   27 1  
     8    5    6 ar 
     9    5   11 1  
    10    6    7 ar 
    11    6   12 1  
    12    7   28 1  
    13    8    9 1  
    14    8   10 1  
    15    9   29 1  
    16    9   30 1  
    17   10   31 1  
    18   10   32 1  
    19   11   13 1  
    20   11   33 1  
    21   12   13 2  
    22   13   14 1  
    23   14   15 ar 
    24   14   19 ar 
    25   15   16 ar 
    26   15   34 1  
    27   16   17 ar 
    28   16   35 1  
    29   17   18 ar 
    30   17   36 1  
    31   18   19 ar 
    32   18   21 1  
    33   19   20 1  
    34   21   22 ar 
    35   21   26 ar 
    36   22   23 ar 
    37   22   37 1  
    38   23   24 ar 
    39   23   38 1  
    40   24   25 ar 
    41   24   39 1  
    42   25   26 ar 
    43   25   40 1  
    44   26   41 1  
    45   20   42 1  
@<TRIPOS>SUBSTRUCTURE
     1 SUB1        1 GROUP

