### 
### Created by X-TOOL on Sun Jun  3 11:31:48 2007
### 

@<TRIPOS>MOLECULE
2j77_ligand
   24    24     1     0     0
SMALL
GAST_HUCK


@<TRIPOS>ATOM
      1 C1         -0.9120   11.1330   10.9470 C.3       1 SUB1        0.025
      2 C2          0.1350   11.6360    9.9430 C.3       1 SUB1        0.096
      3 O2          0.4720   12.9340   10.3860 O.3       1 SUB1       -0.388
      4 C3         -0.4860   11.7580    8.5440 C.3       1 SUB1        0.109
      5 O3          0.5770   12.0530    7.6640 O.3       1 SUB1       -0.387
      6 C4         -1.3080   10.5040    8.1440 C.3       1 SUB1        0.101
      7 O4         -1.7400   10.7230    6.8160 O.3       1 SUB1       -0.387
      8 C5         -2.4700   10.3840    9.1460 C.3       1 SUB1        0.060
      9 N5         -1.8910   10.1580   10.4680 N.3       1 SUB1       -0.306
     10 C6         -3.4120    9.1980    8.8830 C.3       1 SUB1        0.062
     11 O6         -2.7160    7.9670    9.0060 O.3       1 SUB1       -0.393
     12 H          -1.4891   12.0118   11.2349 H         1 SUB1        0.045
     13 H          -0.3485   10.6239   11.7289 H         1 SUB1        0.045
     14 H           0.9886   10.9605    9.8861 H         1 SUB1        0.063
     15 H           1.1295   13.3113    9.7970 H         1 SUB1        0.210
     16 H          -1.2260   12.5575    8.5089 H         1 SUB1        0.065
     17 H           0.2367   12.1394    6.7705 H         1 SUB1        0.210
     18 H          -0.7475    9.5697    8.1764 H         1 SUB1        0.064
     19 H          -0.9754   10.8317    6.2458 H         1 SUB1        0.210
     20 H          -3.0523   11.3011    9.0564 H         1 SUB1        0.051
     21 H          -2.6714   10.2057   11.1230 H         1 SUB1        0.122
     22 H          -3.8068    9.2797    7.8703 H         1 SUB1        0.057
     23 H          -4.2195    9.2206    9.6148 H         1 SUB1        0.057
     24 H          -3.3208    7.2406    8.8383 H         1 SUB1        0.209
@<TRIPOS>BOND
     1    1    2 1  
     2    1    9 1  
     3    2    3 1  
     4    2    4 1  
     5    4    5 1  
     6    4    6 1  
     7    6    7 1  
     8    6    8 1  
     9    8    9 1  
    10    8   10 1  
    11   10   11 1  
    12    1   12 1  
    13    1   13 1  
    14    2   14 1  
    15    3   15 1  
    16    4   16 1  
    17    5   17 1  
    18    6   18 1  
    19    7   19 1  
    20    8   20 1  
    21    9   21 1  
    22   10   22 1  
    23   10   23 1  
    24   11   24 1  
@<TRIPOS>SUBSTRUCTURE
     1 SUB1        1 GROUP

