2j77_ligand
  -I-interpret- 

 24 24  0  0  0  0  0  0  0  0999 V2000
   -0.9120   11.1330   10.9470 C   0  0  0  0  0
    0.1350   11.6360    9.9430 C   0  0  0  0  0
    0.4720   12.9340   10.3860 O   0  0  0  0  0
   -0.4860   11.7580    8.5440 C   0  0  0  0  0
    0.5770   12.0530    7.6640 O   0  0  0  0  0
   -1.3080   10.5040    8.1440 C   0  0  0  0  0
   -1.7400   10.7230    6.8160 O   0  0  0  0  0
   -2.4700   10.3840    9.1460 C   0  0  0  0  0
   -1.8910   10.1580   10.4680 N   0  0  0  0  0
   -3.4120    9.1980    8.8830 C   0  0  0  0  0
   -2.7160    7.9670    9.0060 O   0  0  0  0  0
   -1.4891   12.0118   11.2349 H   0  0  0  0  0
   -0.3485   10.6239   11.7289 H   0  0  0  0  0
    0.9886   10.9605    9.8861 H   0  0  0  0  0
    1.1295   13.3113    9.7970 H   0  0  0  0  0
   -1.2260   12.5575    8.5089 H   0  0  0  0  0
    0.2367   12.1394    6.7705 H   0  0  0  0  0
   -0.7475    9.5697    8.1764 H   0  0  0  0  0
   -0.9754   10.8317    6.2458 H   0  0  0  0  0
   -3.0523   11.3011    9.0564 H   0  0  0  0  0
   -2.6714   10.2057   11.1230 H   0  0  0  0  0
   -3.8068    9.2797    7.8703 H   0  0  0  0  0
   -4.2195    9.2206    9.6148 H   0  0  0  0  0
   -3.3208    7.2406    8.8383 H   0  0  0  0  0
  1  2  1  0  0  0
  1  9  1  0  0  0
  2  3  1  0  0  0
  2  4  1  0  0  0
  4  5  1  0  0  0
  4  6  1  0  0  0
  6  7  1  0  0  0
  6  8  1  0  0  0
  8  9  1  0  0  0
  8 10  1  0  0  0
 10 11  1  0  0  0
  1 12  1  0  0  0
  1 13  1  0  0  0
  2 14  1  0  0  0
  3 15  1  0  0  0
  4 16  1  0  0  0
  5 17  1  0  0  0
  6 18  1  0  0  0
  7 19  1  0  0  0
  8 20  1  0  0  0
  9 21  1  0  0  0
 10 22  1  0  0  0
 10 23  1  0  0  0
 11 24  1  0  0  0
M  END
$$$$
