1li2_ligand
  -I-interpret- 

 13 13  0  0  0  0  0  0  0  0999 V2000
   27.4870    6.6370    3.5090 C   0  0  0  0  0
   26.7380    5.4850    3.2810 C   0  0  0  0  0
   26.0000    4.9200    4.3200 C   0  0  0  0  0
   26.0150    5.4820    5.5880 C   0  0  0  0  0
   26.7910    6.6160    5.7900 C   0  0  0  0  0
   27.5250    7.2200    4.7650 C   0  0  0  0  0
   28.2030    7.1990    2.5140 O   0  0  0  0  0
   26.7290    5.0288    2.2977 H   0  0  0  0  0
   25.4076    4.0313    4.1348 H   0  0  0  0  0
   25.4382    5.0490    6.3972 H   0  0  0  0  0
   26.8290    7.0502    6.7825 H   0  0  0  0  0
   28.1059    8.1168    4.9474 H   0  0  0  0  0
   28.0829    6.6971    1.7164 H   0  0  0  0  0
  1  7  1  0  0  0
  1  6  4  0  0  0
  1  2  4  0  0  0
  2  3  4  0  0  0
  3  4  4  0  0  0
  4  5  4  0  0  0
  5  6  4  0  0  0
  2  8  1  0  0  0
  3  9  1  0  0  0
  4 10  1  0  0  0
  5 11  1  0  0  0
  6 12  1  0  0  0
  7 13  1  0  0  0
M  END
$$$$
