### 
### Created by X-TOOL on Tue Oct 25 01:53:23 2005
### 

@<TRIPOS>MOLECULE
11gs_ligand
   66    66     1     0     0
SMALL
GAST_HUCK


@<TRIPOS>ATOM
      1 N1         14.7090   10.7820   23.2520 N.4       1 SUB1        0.238
      2 CA1        14.6200    9.9440   24.4710 C.3       1 SUB1        0.017
      3 C1         15.7480    8.9120   24.4560 C.2       1 SUB1        0.076
      4 O11        16.0850    8.4010   25.5410 O.co2     1 SUB1       -0.561
      5 O12        16.3130    8.6420   23.3670 O.co2     1 SUB1       -0.561
      6 CB1        13.2690    9.2400   24.5300 C.3       1 SUB1        0.018
      7 CG1        12.9530    8.6610   25.9060 C.3       1 SUB1        0.045
      8 CD1        11.5780    8.0220   25.9870 C.2       1 SUB1        0.179
      9 OE1        10.7970    8.0380   25.0250 O.2       1 SUB1       -0.397
     10 N2         11.2470    7.5340   27.1750 N.am      1 SUB1       -0.265
     11 CA2         9.9720    6.8700   27.4160 C.3       1 SUB1        0.140
     12 C2          9.3670    7.3930   28.7190 C.2       1 SUB1        0.205
     13 O2         10.0850    7.8880   29.5910 O.2       1 SUB1       -0.394
     14 CB2        10.2030    5.3550   27.5530 C.3       1 SUB1        0.034
     15 SG2        11.4450    4.7020   26.3760 S.3       1 SUB1       -0.153
     16 N3          8.0510    7.2770   28.8380 N.am      1 SUB1       -0.271
     17 CA3         7.3820    7.6900   30.0580 C.3       1 SUB1        0.070
     18 C3          6.9000    9.1180   30.0690 C.2       1 SUB1        0.050
     19 O31         6.0060    9.4220   30.8870 O.co2     1 SUB1       -0.564
     20 O32         7.3950    9.9270   29.2540 O.co2     1 SUB1       -0.564
     21 C1          5.7920    2.7370   28.0810 C.ar      1 SUB1        0.116
     22 O2          5.1050    2.1790   29.1650 O.3       1 SUB1       -0.298
     23 C2          7.1260    2.3100   27.8760 C.ar      1 SUB1        0.089
     24 C3          7.8880    2.8040   26.8050 C.ar      1 SUB1        0.065
     25 C4          7.3230    3.7760   25.8990 C.ar      1 SUB1        0.036
     26 C5          5.9880    4.1980   26.1300 C.ar      1 SUB1       -0.051
     27 C6          5.2430    3.6890   27.1990 C.ar      1 SUB1       -0.025
     28 C7          8.0950    4.3720   24.7030 C.2       1 SUB1        0.129
     29 O1          7.5850    5.1970   23.9310 O.2       1 SUB1       -0.384
     30 C8          9.6100    3.9850   24.4110 C.3       1 SUB1        0.041
     31 C9          9.8770    3.3130   23.0520 C.3       1 SUB1       -0.037
     32 C10        11.1860    2.5160   22.9220 C.3       1 SUB1       -0.063
     33 C11        10.6730    5.0250   24.7730 C.3       1 SUB1        0.012
     34 C12         4.0210    1.1970   29.0350 C.3       1 SUB1        0.112
     35 C13         3.8530    0.2730   30.2430 C.2       1 SUB1        0.059
     36 O           4.7490   -0.5720   30.4860 O.co2     1 SUB1       -0.564
     37 OXT         2.8040    0.3540   30.9250 O.co2     1 SUB1       -0.564
     38 H11        13.9667   11.4639   23.2582 H         1 SUB1        0.202
     39 H12        14.6216   10.1976   22.4354 H         1 SUB1        0.202
     40 H13        15.5992   11.2545   23.2333 H         1 SUB1        0.202
     41 H21        14.7284   10.5851   25.3582 H         1 SUB1        0.107
     42 H61        13.2699    8.4196   23.7972 H         1 SUB1        0.038
     43 H62        12.4849    9.9654   24.2674 H         1 SUB1        0.038
     44 H71        13.0051    9.4725   26.6467 H         1 SUB1        0.051
     45 H72        13.7076    7.8972   26.1452 H         1 SUB1        0.051
     46 H101       11.8946    7.6247   27.9316 H         1 SUB1        0.188
     47 H111        9.2861    7.0690   26.5794 H         1 SUB1        0.081
     48 H141        9.2481    4.8387   27.3750 H         1 SUB1        0.042
     49 H142       10.5479    5.1456   28.5763 H         1 SUB1        0.042
     50 H161        7.5156    6.9020   28.0812 H         1 SUB1        0.190
     51 H171        8.0859    7.5612   30.8934 H         1 SUB1        0.074
     52 H172        6.5111    7.0350   30.2080 H         1 SUB1        0.074
     53 H261        5.5377    4.9275   25.4666 H         1 SUB1        0.065
     54 H271        4.2263    4.0327   27.3514 H         1 SUB1        0.056
     55 H301        9.7941    3.1773   25.1346 H         1 SUB1        0.053
     56 H311        9.8899    4.1026   22.2863 H         1 SUB1        0.029
     57 H312        9.0447    2.6221   22.8523 H         1 SUB1        0.029
     58 H321       11.2564    2.0891   21.9107 H         1 SUB1        0.023
     59 H322       11.1963    1.7042   23.6641 H         1 SUB1        0.023
     60 H323       12.0415    3.1847   23.0981 H         1 SUB1        0.023
     61 H331       10.1990    6.0171   24.8039 H         1 SUB1        0.040
     62 H332       11.4535    5.0155   23.9979 H         1 SUB1        0.040
     63 H341        4.2260    0.5740   28.1519 H         1 SUB1        0.084
     64 H342        3.0781    1.7438   28.8871 H         1 SUB1        0.084
     65 CL1         7.8760    1.1450   28.9840 Cl        1 SUB1       -0.077
     66 CL2         9.5230    2.1350   26.6450 Cl        1 SUB1       -0.066
@<TRIPOS>BOND
     1    2    1 1  
     2    6    2 1  
     3    2    3 1  
     4    3    5 2  
     5    3    4 2  
     6    7    6 1  
     7    8    7 1  
     8   10    8 am 
     9    8    9 2  
    10   11   10 1  
    11   14   11 1  
    12   11   12 1  
    13   12   16 am 
    14   12   13 2  
    15   16   17 1  
    16   17   18 1  
    17   18   20 2  
    18   18   19 2  
    19   15   14 1  
    20   27   21 ar 
    21   23   21 ar 
    22   21   22 1  
    23   22   34 1  
    24   34   35 1  
    25   35   37 2  
    26   35   36 2  
    27   24   23 ar 
    28   25   24 ar 
    29   28   25 1  
    30   25   26 ar 
    31   26   27 ar 
    32   30   28 1  
    33   28   29 2  
    34   33   30 1  
    35   30   31 1  
    36   31   32 1  
    37   23   65 1  
    38   24   66 1  
    39    1   38 1  
    40    1   39 1  
    41    1   40 1  
    42    2   41 1  
    43    6   42 1  
    44    6   43 1  
    45    7   44 1  
    46    7   45 1  
    47   10   46 1  
    48   11   47 1  
    49   14   48 1  
    50   14   49 1  
    51   16   50 1  
    52   17   51 1  
    53   17   52 1  
    54   26   53 1  
    55   27   54 1  
    56   30   55 1  
    57   31   56 1  
    58   31   57 1  
    59   32   58 1  
    60   32   59 1  
    61   32   60 1  
    62   33   61 1  
    63   33   62 1  
    64   34   63 1  
    65   34   64 1  
    66   33   15 1  
@<TRIPOS>SUBSTRUCTURE
     1 SUB1        1 GROUP

