### 
### Created by X-TOOL on Mon Oct 24 23:12:20 2005
### 

@<TRIPOS>MOLECULE
1vjd_ligand
   43    45     1     0     0
SMALL
GAST_HUCK


@<TRIPOS>ATOM
      1 PG          7.2830    4.1830    7.4010 P.3       1 SUB1        0.143
      2 O1G         8.3390    4.6840    6.4980 O.co2     1 SUB1       -0.614
      3 O2G         7.3640    2.7460    7.7120 O.co2     1 SUB1       -0.614
      4 O3G         7.0210    5.0980    8.5660 O.co2     1 SUB1       -0.614
      5 PB          5.6130    4.9560    5.0640 P.3       1 SUB1        0.354
      6 O1B         6.8010    5.7980    4.7040 O.co2     1 SUB1       -0.497
      7 O2B         4.2950    5.6100    5.1440 O.co2     1 SUB1       -0.497
      8 O3B         5.9420    4.2060    6.4960 O.3       1 SUB1       -0.297
      9 PA          5.2320    3.4470    2.5720 P.3       1 SUB1        0.350
     10 O1A         5.4370    2.0140    2.3280 O.co2     1 SUB1       -0.488
     11 O2A         3.9180    4.0500    2.2160 O.co2     1 SUB1       -0.488
     12 O3A         5.6430    3.7440    4.0820 O.3       1 SUB1       -0.186
     13 O5          6.3690    4.2240    1.8300 O.3       1 SUB1       -0.280
     14 C5          7.7580    4.1050    2.1670 C.3       1 SUB1        0.102
     15 C4          8.5460    3.9370    0.9050 C.3       1 SUB1        0.118
     16 O4          8.3460    5.1360    0.1280 O.3       1 SUB1       -0.336
     17 C3         10.0370    3.8370    1.0960 C.3       1 SUB1        0.115
     18 O3         10.4680    2.4940    0.8260 O.3       1 SUB1       -0.386
     19 C2         10.6100    4.8490    0.1200 C.3       1 SUB1        0.139
     20 O2         11.6160    4.3220   -0.7240 O.3       1 SUB1       -0.384
     21 C1          9.4170    5.2240   -0.7900 C.3       1 SUB1        0.201
     22 N9          9.4830    6.6130   -1.3410 N.pl3     1 SUB1       -0.192
     23 C8          9.6880    7.8040   -0.6820 C.2       1 SUB1        0.112
     24 N7          9.6970    8.8620   -1.4420 N.2       1 SUB1       -0.296
     25 C5          9.4830    8.3270   -2.7060 C.ar      1 SUB1        0.105
     26 C6          9.3770    8.9150   -3.9990 C.ar      1 SUB1        0.130
     27 N6          9.4930   10.2250   -4.1670 N.pl3     1 SUB1       -0.315
     28 N1          9.1550    8.1100   -5.0750 N.ar      1 SUB1       -0.270
     29 C2          9.0400    6.7870   -4.8980 C.ar      1 SUB1        0.053
     30 N3          9.1200    6.1010   -3.7330 N.ar      1 SUB1       -0.271
     31 C4          9.3440    6.9530   -2.6580 C.ar      1 SUB1        0.161
     32 H141        7.9077    3.2296    2.8160 H         1 SUB1        0.064
     33 H142        8.0903    5.0123    2.6927 H         1 SUB1        0.064
     34 H151        8.1836    3.0486    0.3671 H         1 SUB1        0.065
     35 H171       10.3174    4.1043    2.1255 H         1 SUB1        0.065
     36 H181       11.4083    2.4340    0.9472 H         1 SUB1        0.210
     37 H191       10.9989    5.7234    0.6625 H         1 SUB1        0.068
     38 H201       11.2558    3.6078   -1.2364 H         1 SUB1        0.210
     39 H211        9.3114    4.5074   -1.6178 H         1 SUB1        0.100
     40 H231        9.8321    7.8579    0.3961 H         1 SUB1        0.135
     41 H271        9.4135   10.6324   -5.1097 H         1 SUB1        0.182
     42 H272        9.6626   10.8354   -3.3548 H         1 SUB1        0.182
     43 H291        8.8624    6.1976   -5.7902 H         1 SUB1        0.100
@<TRIPOS>BOND
     1    1    2 2  
     2    1    3 2  
     3    1    4 2  
     4    8    1 1  
     5    5    6 2  
     6    5    7 2  
     7    5    8 1  
     8   12    5 1  
     9    9   10 2  
    10    9   11 2  
    11    9   12 1  
    12    9   13 1  
    13   13   14 1  
    14   14   15 1  
    15   15   16 1  
    16   15   17 1  
    17   16   21 1  
    18   17   18 1  
    19   17   19 1  
    20   19   20 1  
    21   19   21 1  
    22   21   22 1  
    23   22   23 1  
    24   22   31 1  
    25   23   24 2  
    26   24   25 1  
    27   25   26 ar 
    28   25   31 ar 
    29   26   27 1  
    30   26   28 ar 
    31   28   29 ar 
    32   29   30 ar 
    33   30   31 ar 
    34   14   32 1  
    35   14   33 1  
    36   15   34 1  
    37   17   35 1  
    38   18   36 1  
    39   19   37 1  
    40   20   38 1  
    41   21   39 1  
    42   23   40 1  
    43   27   41 1  
    44   27   42 1  
    45   29   43 1  
@<TRIPOS>SUBSTRUCTURE
     1 SUB1        1 GROUP

