### 
### Created by X-TOOL on Mon Oct 24 23:22:49 2005
### 

@<TRIPOS>MOLECULE
1m48_ligand
   64    66     1     0     0
SMALL
GAST_HUCK


@<TRIPOS>ATOM
      1 N33         2.5640   20.9650    0.1020 N.pl3     1 SUB1       -0.183
      2 C31         2.6030   20.1150   -0.9240 C.cat     1 SUB1        0.389
      3 N32         3.6640   19.3090   -1.0060 N.pl3     1 SUB1       -0.183
      4 N29         1.4640   20.0100   -1.8160 N.pl3     1 SUB1       -0.157
      5 C30         1.5440   18.8910   -2.7960 C.3       1 SUB1        0.059
      6 C28         0.7770   21.2590   -2.2630 C.3       1 SUB1        0.054
      7 C27         0.7920   21.5550   -3.7680 C.3       1 SUB1       -0.033
      8 C26         0.7650   20.3340   -4.6850 C.3       1 SUB1       -0.045
      9 C24         1.7800   19.2790   -4.2560 C.3       1 SUB1       -0.005
     10 C23         1.7010   18.0400   -5.1720 C.3       1 SUB1        0.042
     11 C22         1.8640   18.4240   -6.6300 C.2       1 SUB1        0.179
     12 O25         2.9290   18.8790   -7.0090 O.2       1 SUB1       -0.397
     13 N21         0.8130   18.2520   -7.4550 N.am      1 SUB1       -0.262
     14 C16         0.9170   18.4640   -8.9030 C.3       1 SUB1        0.152
     15 C17         0.7970   19.9100   -9.3270 C.2       1 SUB1        0.261
     16 O19         1.4720   20.3790  -10.2350 O.2       1 SUB1       -0.368
     17 O18        -0.1090   20.8010   -8.6190 O.3       1 SUB1       -0.278
     18 C20        -0.4400   22.0880   -9.1400 C.3       1 SUB1        0.066
     19 C15        -0.0450   17.5560   -9.6420 C.3       1 SUB1        0.023
     20 C12        -0.0430   16.0920   -9.4220 C.ar      1 SUB1       -0.037
     21 C13        -1.0430   15.4670   -8.6800 C.ar      1 SUB1       -0.058
     22 C14        -1.0440   14.0910   -8.5070 C.ar      1 SUB1       -0.052
     23 C11         0.9720   15.3360   -9.9940 C.ar      1 SUB1       -0.058
     24 C10         0.9930   13.9710   -9.8210 C.ar      1 SUB1       -0.052
     25 C9         -0.0100   13.3710   -9.0720 C.ar      1 SUB1        0.019
     26 C8          0.0450   11.9300   -8.9320 C.1       1 SUB1       -0.066
     27 C7          0.1140   10.6380   -8.8620 C.1       1 SUB1       -0.064
     28 C4          0.1600    9.1950   -8.8240 C.ar      1 SUB1        0.024
     29 C5         -0.6990    8.5090   -9.6690 C.ar      1 SUB1       -0.047
     30 C6         -0.6930    7.1280   -9.6580 C.ar      1 SUB1       -0.061
     31 C3          1.0160    8.5670   -7.9560 C.ar      1 SUB1       -0.047
     32 C2          1.0230    7.1890   -7.9480 C.ar      1 SUB1       -0.061
     33 C1          0.1680    6.4790   -8.7830 C.ar      1 SUB1       -0.062
     34 H11         3.3708   21.0424    0.7376 H         1 SUB1        0.194
     35 H12         1.7271   21.5444    0.2592 H         1 SUB1        0.194
     36 H31         4.4492   19.4228   -0.3492 H         1 SUB1        0.194
     37 H32         3.6974   18.5733   -1.7261 H         1 SUB1        0.194
     38 H51         0.5960   18.3352   -2.7469 H         1 SUB1        0.051
     39 H52         2.3706   18.2343   -2.4869 H         1 SUB1        0.051
     40 H61         1.2596   22.1054   -1.7525 H         1 SUB1        0.050
     41 H62        -0.2746   21.1917   -1.9475 H         1 SUB1        0.050
     42 H71        -0.0894   22.1709   -3.9997 H         1 SUB1        0.028
     43 H72         1.7062   22.1246   -3.9909 H         1 SUB1        0.028
     44 H81        -0.2415   19.8911   -4.6581 H         1 SUB1        0.027
     45 H82         0.9972   20.6546   -5.7113 H         1 SUB1        0.027
     46 H91         2.7884   19.7096   -4.3434 H         1 SUB1        0.034
     47 H101        0.7231   17.5551   -5.0360 H         1 SUB1        0.051
     48 H102        2.5005   17.3373   -4.8946 H         1 SUB1        0.051
     49 H131       -0.0654   17.9711   -7.0684 H         1 SUB1        0.189
     50 H141        1.9310   18.1488   -9.1900 H         1 SUB1        0.084
     51 H181       -1.1347   22.5939   -8.4534 H         1 SUB1        0.058
     52 H182       -0.9163   21.9735  -10.1249 H         1 SUB1        0.058
     53 H183        0.4758   22.6885   -9.2432 H         1 SUB1        0.058
     54 H191        0.1434   17.7099  -10.7148 H         1 SUB1        0.048
     55 H192       -1.0575   17.9068   -9.3935 H         1 SUB1        0.048
     56 H211       -1.8298   16.0635   -8.2325 H         1 SUB1        0.056
     57 H221       -1.8300   13.5973   -7.9471 H         1 SUB1        0.062
     58 H231        1.7471   15.8209  -10.5763 H         1 SUB1        0.056
     59 H241        1.7815   13.3728  -10.2633 H         1 SUB1        0.062
     60 H291       -1.3668    9.0498  -10.3298 H         1 SUB1        0.063
     61 H301       -1.3444    6.5646  -10.3162 H         1 SUB1        0.062
     62 H311        1.6647    9.1349   -7.2989 H         1 SUB1        0.063
     63 H321        1.6980    6.6565   -7.2878 H         1 SUB1        0.062
     64 H331        0.1735    5.3955   -8.7504 H         1 SUB1        0.062
@<TRIPOS>BOND
     1    1    2 1  
     2    2    4 1  
     3    2    3 1  
     4    4    6 1  
     5    4    5 1  
     6    5    9 1  
     7    9   10 1  
     8    9    8 1  
     9    8    7 1  
    10    7    6 1  
    11   10   11 1  
    12   11   13 am 
    13   11   12 2  
    14   13   14 1  
    15   14   19 1  
    16   14   15 1  
    17   15   17 1  
    18   15   16 2  
    19   17   18 1  
    20   19   20 1  
    21   20   23 ar 
    22   20   21 ar 
    23   21   22 ar 
    24   22   25 ar 
    25   25   26 1  
    26   25   24 ar 
    27   24   23 ar 
    28   26   27 3  
    29   27   28 1  
    30   28   31 ar 
    31   28   29 ar 
    32   29   30 ar 
    33   30   33 ar 
    34   33   32 ar 
    35   32   31 ar 
    36    1   34 1  
    37    1   35 1  
    38    3   36 1  
    39    3   37 1  
    40    5   38 1  
    41    5   39 1  
    42    6   40 1  
    43    6   41 1  
    44    7   42 1  
    45    7   43 1  
    46    8   44 1  
    47    8   45 1  
    48    9   46 1  
    49   10   47 1  
    50   10   48 1  
    51   13   49 1  
    52   14   50 1  
    53   18   51 1  
    54   18   52 1  
    55   18   53 1  
    56   19   54 1  
    57   19   55 1  
    58   21   56 1  
    59   22   57 1  
    60   23   58 1  
    61   24   59 1  
    62   29   60 1  
    63   30   61 1  
    64   31   62 1  
    65   32   63 1  
    66   33   64 1  
@<TRIPOS>SUBSTRUCTURE
     1 SUB1        1 GROUP

