### 
### Created by X-TOOL on Mon Oct 24 22:02:13 2005
### 

@<TRIPOS>MOLECULE
2aac_ligand
   23    23     1     0     0
SMALL
GAST_HUCK


@<TRIPOS>ATOM
      1 H121       40.0276    3.5733   42.5167 H         1 SUB1        0.094
      2 H131       39.5231    0.9153   41.0891 H         1 SUB1        0.067
      3 H141       38.6763    3.7233   40.2395 H         1 SUB1        0.065
      4 H151       36.3885    3.0959   40.7457 H         1 SUB1        0.065
      5 H161       37.7308    4.1142   42.5528 H         1 SUB1        0.062
      6 H171       36.4794    3.3080   44.5169 H         1 SUB1        0.025
      7 H172       35.9684    1.8503   43.6002 H         1 SUB1        0.025
      8 H173       35.4036    3.4768   43.0883 H         1 SUB1        0.025
      9 H181       40.8364    2.1015   44.0583 H         1 SUB1        0.213
     10 H191       41.5828    1.9115   40.8008 H         1 SUB1        0.210
     11 H201       38.1105    1.1121   39.2407 H         1 SUB1        0.210
     12 C1         39.7740    2.5030   42.5190 C.3       1 SUB1        0.185
     13 C2         39.6580    2.0070   41.0830 C.3       1 SUB1        0.134
     14 C3         38.4640    2.6540   40.3860 C.3       1 SUB1        0.114
     15 C4         37.1990    2.5190   41.2150 C.3       1 SUB1        0.109
     16 C5         37.4570    3.0510   42.6210 C.3       1 SUB1        0.087
     17 C6         36.2440    2.9120   43.5180 C.3       1 SUB1       -0.036
     18 O1         40.7570    1.7910   43.1640 O.3       1 SUB1       -0.365
     19 O2         40.8410    2.3290   40.3790 O.3       1 SUB1       -0.384
     20 O3         38.2750    2.0400   39.1200 O.3       1 SUB1       -0.386
     21 O4         36.8240    1.1460   41.2920 O.3       1 SUB1       -0.387
     22 O5         38.5500    2.3040   43.2170 O.3       1 SUB1       -0.343
     23 H211       36.6661    0.8124   40.4166 H         1 SUB1        0.210
@<TRIPOS>BOND
     1   12    1 1  
     2   13    2 1  
     3   14    3 1  
     4   15    4 1  
     5   16    5 1  
     6   17    6 1  
     7   17    7 1  
     8   17    8 1  
     9   18    9 1  
    10   19   10 1  
    11   20   11 1  
    12   22   12 1  
    13   12   18 1  
    14   12   13 1  
    15   13   19 1  
    16   14   13 1  
    17   14   20 1  
    18   15   14 1  
    19   15   21 1  
    20   16   15 1  
    21   16   22 1  
    22   16   17 1  
    23   21   23 1  
@<TRIPOS>SUBSTRUCTURE
     1 SUB1        1 GROUP

