2aac_ligand
  -I-interpret- 

 23 23  0  0  0  0  0  0  0  0999 V2000
   40.0276    3.5733   42.5167 H   0  0  0  0  0
   39.5231    0.9153   41.0891 H   0  0  0  0  0
   38.6763    3.7233   40.2395 H   0  0  0  0  0
   36.3885    3.0959   40.7457 H   0  0  0  0  0
   37.7308    4.1142   42.5528 H   0  0  0  0  0
   36.4794    3.3080   44.5169 H   0  0  0  0  0
   35.9684    1.8503   43.6002 H   0  0  0  0  0
   35.4036    3.4768   43.0883 H   0  0  0  0  0
   40.8364    2.1015   44.0583 H   0  0  0  0  0
   41.5828    1.9115   40.8008 H   0  0  0  0  0
   38.1105    1.1121   39.2407 H   0  0  0  0  0
   39.7740    2.5030   42.5190 C   0  0  0  0  0
   39.6580    2.0070   41.0830 C   0  0  0  0  0
   38.4640    2.6540   40.3860 C   0  0  0  0  0
   37.1990    2.5190   41.2150 C   0  0  0  0  0
   37.4570    3.0510   42.6210 C   0  0  0  0  0
   36.2440    2.9120   43.5180 C   0  0  0  0  0
   40.7570    1.7910   43.1640 O   0  0  0  0  0
   40.8410    2.3290   40.3790 O   0  0  0  0  0
   38.2750    2.0400   39.1200 O   0  0  0  0  0
   36.8240    1.1460   41.2920 O   0  0  0  0  0
   38.5500    2.3040   43.2170 O   0  0  0  0  0
   36.6661    0.8124   40.4166 H   0  0  0  0  0
 12  1  1  0  0  0
 13  2  1  0  0  0
 14  3  1  0  0  0
 15  4  1  0  0  0
 16  5  1  0  0  0
 17  6  1  0  0  0
 17  7  1  0  0  0
 17  8  1  0  0  0
 18  9  1  0  0  0
 19 10  1  0  0  0
 20 11  1  0  0  0
 22 12  1  0  0  0
 12 18  1  0  0  0
 12 13  1  0  0  0
 13 19  1  0  0  0
 14 13  1  0  0  0
 14 20  1  0  0  0
 15 14  1  0  0  0
 15 21  1  0  0  0
 16 15  1  0  0  0
 16 22  1  0  0  0
 16 17  1  0  0  0
 21 23  1  0  0  0
M  END
$$$$
