### 
### Created by X-TOOL on Mon Oct 24 22:05:22 2005
### 

@<TRIPOS>MOLECULE
1j16_ligand
   18    18     1     0     0
SMALL
GAST_HUCK


@<TRIPOS>ATOM
      1 H111        7.5832   48.5987   53.1540 H         1 SUB1        0.066
      2 H121        7.7994   46.3860   54.2654 H         1 SUB1        0.062
      3 H131        7.7405   46.2559   56.7504 H         1 SUB1        0.062
      4 H141        7.9381   48.3418   58.0857 H         1 SUB1        0.062
      5 H151        7.7947   50.5576   56.9737 H         1 SUB1        0.066
      6 H171        6.8597   52.9938   54.5418 H         1 SUB1        0.192
      7 H172        6.7867   51.9680   55.9996 H         1 SUB1        0.192
      8 H181        8.1127   50.3853   52.5099 H         1 SUB1        0.192
      9 H182        7.6261   52.1007   52.5693 H         1 SUB1        0.192
     10 C1          7.6690   49.7290   54.9860 C.ar      1 SUB1        0.186
     11 C2          7.6600   48.5450   54.2340 C.ar      1 SUB1       -0.007
     12 C3          7.7490   47.2910   54.8600 C.ar      1 SUB1       -0.057
     13 C4          7.7720   47.2190   56.2540 C.ar      1 SUB1       -0.062
     14 C5          7.8360   48.3980   57.0080 C.ar      1 SUB1       -0.057
     15 C6          7.7690   49.6510   56.3800 C.ar      1 SUB1       -0.007
     16 C           7.4610   51.0660   54.3070 C.cat     1 SUB1        0.316
     17 N1          7.0030   52.0820   54.9990 N.pl3     1 SUB1       -0.200
     18 N2          7.7540   51.1930   53.0390 N.pl3     1 SUB1       -0.200
@<TRIPOS>BOND
     1   11    1 1  
     2   12    2 1  
     3   13    3 1  
     4   14    4 1  
     5   15    5 1  
     6   17    6 1  
     7   17    7 1  
     8   18    8 1  
     9   18    9 1  
    10   16   10 1  
    11   10   15 ar 
    12   10   11 ar 
    13   11   12 ar 
    14   12   13 ar 
    15   14   13 ar 
    16   15   14 ar 
    17   16   18 1  
    18   16   17 1  
@<TRIPOS>SUBSTRUCTURE
     1 SUB1        1 GROUP

