### 
### Created by X-TOOL on Sun Jun  3 11:23:24 2007
### 

@<TRIPOS>MOLECULE
2f80_ligand
   75    78     1     0     0
SMALL
GAST_HUCK


@<TRIPOS>ATOM
      1 N1         21.1430   28.7980   14.0100 N.pl3     1 SUB1       -0.337
      2 C2         20.5620   27.6460   14.4460 C.ar      1 SUB1        0.035
      3 C3         19.2200   27.4510   14.1280 C.ar      1 SUB1       -0.043
      4 C4         18.5750   26.2900   14.5490 C.ar      1 SUB1       -0.047
      5 C5         19.3070   25.3530   15.2830 C.ar      1 SUB1        0.095
      6 C6         20.6580   25.5150   15.6220 C.ar      1 SUB1       -0.047
      7 C7         21.2920   26.6990   15.1850 C.ar      1 SUB1       -0.043
      8 S8         18.4080   23.8460   15.8120 S.o2      1 SUB1        0.065
      9 O9         17.2190   23.5220   14.8850 O.2       1 SUB1       -0.152
     10 O10        19.4760   22.6930   15.9630 O.2       1 SUB1       -0.152
     11 N11        17.8200   24.1710   17.4900 N.am      1 SUB1       -0.233
     12 C12        18.8420   24.5720   18.5060 C.3       1 SUB1        0.032
     13 C13        18.5320   23.9580   19.8970 C.3       1 SUB1       -0.030
     14 C14        18.3170   22.4680   19.6970 C.3       1 SUB1       -0.061
     15 C15        19.7340   24.2060   20.8030 C.3       1 SUB1       -0.061
     16 C16        16.5610   25.0320   17.5180 C.3       1 SUB1        0.058
     17 C17        15.4090   24.0820   18.0090 C.3       1 SUB1        0.097
     18 O18        14.2840   24.8750   18.3430 O.3       1 SUB1       -0.388
     19 C19        15.0610   22.9430   17.0100 C.3       1 SUB1        0.081
     20 N20        14.1470   22.0380   17.6660 N.am      1 SUB1       -0.255
     21 C21        14.4610   20.7880   18.0620 C.2       1 SUB1        0.320
     22 O22        15.5720   20.2090   17.7850 O.2       1 SUB1       -0.377
     23 O23        13.4090   20.1960   18.8200 O.3       1 SUB1       -0.258
     24 C24        13.5140   18.7410   19.0150 C.3       1 SUB1        0.119
     25 C25        12.8390   18.3920   20.3620 C.3       1 SUB1        0.082
     26 O26        11.4100   18.6260   20.1590 O.3       1 SUB1       -0.348
     27 C27        11.1950   18.2080   18.8220 C.3       1 SUB1        0.165
     28 O28        10.2770   19.0030   18.0950 O.3       1 SUB1       -0.351
     29 C29        11.1260   19.5880   17.0830 C.3       1 SUB1        0.051
     30 C30        12.2140   18.5700   16.7260 C.3       1 SUB1       -0.019
     31 C31        12.4780   18.0440   18.1150 C.3       1 SUB1        0.045
     32 C32        14.3430   23.3390   15.6960 C.3       1 SUB1        0.006
     33 C33        12.5470   21.8390   14.6860 C.ar      1 SUB1       -0.060
     34 C34        12.1480   20.7570   13.8910 C.ar      1 SUB1       -0.069
     35 C35        13.1250   19.9890   13.2360 C.ar      1 SUB1       -0.069
     36 C36        14.4820   20.3080   13.3800 C.ar      1 SUB1       -0.069
     37 C37        14.8810   21.3940   14.1770 C.ar      1 SUB1       -0.060
     38 C38        13.9040   22.1590   14.8300 C.ar      1 SUB1       -0.041
     39 H          20.5974   29.4736   13.4750 H         1 SUB1        0.172
     40 H          22.1238   28.9851   14.2184 H         1 SUB1        0.172
     41 H          18.6778   28.2020   13.5534 H         1 SUB1        0.052
     42 H          17.5253   26.1169   14.3117 H         1 SUB1        0.060
     43 H          21.1950   24.7607   16.1972 H         1 SUB1        0.060
     44 H          22.3414   26.8774   15.4195 H         1 SUB1        0.052
     45 H          18.8304   25.6581   18.5975 H         1 SUB1        0.048
     46 H          19.8161   24.2094   18.1777 H         1 SUB1        0.048
     47 H          17.6459   24.4009   20.3517 H         1 SUB1        0.031
     48 H          17.4815   22.3111   19.0148 H         1 SUB1        0.023
     49 H          19.2197   22.0252   19.2759 H         1 SUB1        0.023
     50 H          18.0961   22.0020   20.6573 H         1 SUB1        0.023
     51 H          20.6163   23.7334   20.3714 H         1 SUB1        0.023
     52 H          19.9031   25.2789   20.8946 H         1 SUB1        0.023
     53 H          19.5385   23.7823   21.7880 H         1 SUB1        0.023
     54 H          16.3417   25.4486   16.5349 H         1 SUB1        0.050
     55 H          16.6796   25.8893   18.1806 H         1 SUB1        0.050
     56 H          15.7600   23.5510   18.8939 H         1 SUB1        0.063
     57 H          13.5716   24.3067   18.6450 H         1 SUB1        0.210
     58 H          16.0348   22.5395   16.7326 H         1 SUB1        0.060
     59 H          13.1978   22.3672   17.8421 H         1 SUB1        0.187
     60 H          14.5600   18.4663   18.8788 H         1 SUB1        0.068
     61 H          13.2312   19.0040   21.1742 H         1 SUB1        0.059
     62 H          13.0363   17.3596   20.6505 H         1 SUB1        0.059
     63 H          10.7076   17.2352   18.8871 H         1 SUB1        0.091
     64 H          11.5792   20.5056   17.4580 H         1 SUB1        0.056
     65 H          10.5393   19.8359   16.1984 H         1 SUB1        0.056
     66 H          13.0821   18.9757   16.2064 H         1 SUB1        0.029
     67 H          11.9292   17.8201   15.9880 H         1 SUB1        0.029
     68 H          12.8854   17.0453   17.9579 H         1 SUB1        0.038
     69 H          15.0542   23.9184   15.1072 H         1 SUB1        0.045
     70 H          13.4397   23.8800   15.9778 H         1 SUB1        0.045
     71 H          11.7943   22.4384   15.1981 H         1 SUB1        0.056
     72 H          11.0911   20.5136   13.7818 H         1 SUB1        0.060
     73 H          12.8273   19.1440   12.6151 H         1 SUB1        0.056
     74 H          15.2349   19.7080   12.8689 H         1 SUB1        0.060
     75 H          15.9375   21.6390   14.2864 H         1 SUB1        0.056
@<TRIPOS>BOND
     1    2    1 1  
     2    3    2 ar 
     3    7    2 ar 
     4    4    3 ar 
     5    5    4 ar 
     6    5    6 ar 
     7    8    5 1  
     8    6    7 ar 
     9    8    9 2  
    10    8   10 2  
    11   11    8 1  
    12   11   12 1  
    13   16   11 1  
    14   12   13 1  
    15   13   14 1  
    16   13   15 1  
    17   17   16 1  
    18   17   18 1  
    19   19   17 1  
    20   19   20 1  
    21   32   19 1  
    22   20   21 am 
    23   21   22 2  
    24   21   23 1  
    25   23   24 1  
    26   24   25 1  
    27   24   31 1  
    28   25   26 1  
    29   27   26 1  
    30   27   28 1  
    31   31   27 1  
    32   29   28 1  
    33   30   29 1  
    34   31   30 1  
    35   38   32 1  
    36   33   34 ar 
    37   33   38 ar 
    38   34   35 ar 
    39   35   36 ar 
    40   36   37 ar 
    41   37   38 ar 
    42    1   39 1  
    43    1   40 1  
    44    3   41 1  
    45    4   42 1  
    46    6   43 1  
    47    7   44 1  
    48   12   45 1  
    49   12   46 1  
    50   13   47 1  
    51   14   48 1  
    52   14   49 1  
    53   14   50 1  
    54   15   51 1  
    55   15   52 1  
    56   15   53 1  
    57   16   54 1  
    58   16   55 1  
    59   17   56 1  
    60   18   57 1  
    61   19   58 1  
    62   20   59 1  
    63   24   60 1  
    64   25   61 1  
    65   25   62 1  
    66   27   63 1  
    67   29   64 1  
    68   29   65 1  
    69   30   66 1  
    70   30   67 1  
    71   31   68 1  
    72   32   69 1  
    73   32   70 1  
    74   33   71 1  
    75   34   72 1  
    76   35   73 1  
    77   36   74 1  
    78   37   75 1  
@<TRIPOS>SUBSTRUCTURE
     1 SUB1        1 GROUP

