2f80_ligand
  -I-interpret- 

 75 78  0  0  0  0  0  0  0  0999 V2000
   21.1430   28.7980   14.0100 N   0  0  0  0  0
   20.5620   27.6460   14.4460 C   0  0  0  0  0
   19.2200   27.4510   14.1280 C   0  0  0  0  0
   18.5750   26.2900   14.5490 C   0  0  0  0  0
   19.3070   25.3530   15.2830 C   0  0  0  0  0
   20.6580   25.5150   15.6220 C   0  0  0  0  0
   21.2920   26.6990   15.1850 C   0  0  0  0  0
   18.4080   23.8460   15.8120 S   0  0  0  0  0
   17.2190   23.5220   14.8850 O   0  0  0  0  0
   19.4760   22.6930   15.9630 O   0  0  0  0  0
   17.8200   24.1710   17.4900 N   0  0  0  0  0
   18.8420   24.5720   18.5060 C   0  0  0  0  0
   18.5320   23.9580   19.8970 C   0  0  0  0  0
   18.3170   22.4680   19.6970 C   0  0  0  0  0
   19.7340   24.2060   20.8030 C   0  0  0  0  0
   16.5610   25.0320   17.5180 C   0  0  0  0  0
   15.4090   24.0820   18.0090 C   0  0  0  0  0
   14.2840   24.8750   18.3430 O   0  0  0  0  0
   15.0610   22.9430   17.0100 C   0  0  0  0  0
   14.1470   22.0380   17.6660 N   0  0  0  0  0
   14.4610   20.7880   18.0620 C   0  0  0  0  0
   15.5720   20.2090   17.7850 O   0  0  0  0  0
   13.4090   20.1960   18.8200 O   0  0  0  0  0
   13.5140   18.7410   19.0150 C   0  0  0  0  0
   12.8390   18.3920   20.3620 C   0  0  0  0  0
   11.4100   18.6260   20.1590 O   0  0  0  0  0
   11.1950   18.2080   18.8220 C   0  0  0  0  0
   10.2770   19.0030   18.0950 O   0  0  0  0  0
   11.1260   19.5880   17.0830 C   0  0  0  0  0
   12.2140   18.5700   16.7260 C   0  0  0  0  0
   12.4780   18.0440   18.1150 C   0  0  0  0  0
   14.3430   23.3390   15.6960 C   0  0  0  0  0
   12.5470   21.8390   14.6860 C   0  0  0  0  0
   12.1480   20.7570   13.8910 C   0  0  0  0  0
   13.1250   19.9890   13.2360 C   0  0  0  0  0
   14.4820   20.3080   13.3800 C   0  0  0  0  0
   14.8810   21.3940   14.1770 C   0  0  0  0  0
   13.9040   22.1590   14.8300 C   0  0  0  0  0
   20.5974   29.4736   13.4750 H   0  0  0  0  0
   22.1238   28.9851   14.2184 H   0  0  0  0  0
   18.6778   28.2020   13.5534 H   0  0  0  0  0
   17.5253   26.1169   14.3117 H   0  0  0  0  0
   21.1950   24.7607   16.1972 H   0  0  0  0  0
   22.3414   26.8774   15.4195 H   0  0  0  0  0
   18.8304   25.6581   18.5975 H   0  0  0  0  0
   19.8161   24.2094   18.1777 H   0  0  0  0  0
   17.6459   24.4009   20.3517 H   0  0  0  0  0
   17.4815   22.3111   19.0148 H   0  0  0  0  0
   19.2197   22.0252   19.2759 H   0  0  0  0  0
   18.0961   22.0020   20.6573 H   0  0  0  0  0
   20.6163   23.7334   20.3714 H   0  0  0  0  0
   19.9031   25.2789   20.8946 H   0  0  0  0  0
   19.5385   23.7823   21.7880 H   0  0  0  0  0
   16.3417   25.4486   16.5349 H   0  0  0  0  0
   16.6796   25.8893   18.1806 H   0  0  0  0  0
   15.7600   23.5510   18.8939 H   0  0  0  0  0
   13.5716   24.3067   18.6450 H   0  0  0  0  0
   16.0348   22.5395   16.7326 H   0  0  0  0  0
   13.1978   22.3672   17.8421 H   0  0  0  0  0
   14.5600   18.4663   18.8788 H   0  0  0  0  0
   13.2312   19.0040   21.1742 H   0  0  0  0  0
   13.0363   17.3596   20.6505 H   0  0  0  0  0
   10.7076   17.2352   18.8871 H   0  0  0  0  0
   11.5792   20.5056   17.4580 H   0  0  0  0  0
   10.5393   19.8359   16.1984 H   0  0  0  0  0
   13.0821   18.9757   16.2064 H   0  0  0  0  0
   11.9292   17.8201   15.9880 H   0  0  0  0  0
   12.8854   17.0453   17.9579 H   0  0  0  0  0
   15.0542   23.9184   15.1072 H   0  0  0  0  0
   13.4397   23.8800   15.9778 H   0  0  0  0  0
   11.7943   22.4384   15.1981 H   0  0  0  0  0
   11.0911   20.5136   13.7818 H   0  0  0  0  0
   12.8273   19.1440   12.6151 H   0  0  0  0  0
   15.2349   19.7080   12.8689 H   0  0  0  0  0
   15.9375   21.6390   14.2864 H   0  0  0  0  0
  2  1  1  0  0  0
  3  2  4  0  0  0
  7  2  4  0  0  0
  4  3  4  0  0  0
  5  4  4  0  0  0
  5  6  4  0  0  0
  8  5  1  0  0  0
  6  7  4  0  0  0
  8  9  2  0  0  0
  8 10  2  0  0  0
 11  8  1  0  0  0
 11 12  1  0  0  0
 16 11  1  0  0  0
 12 13  1  0  0  0
 13 14  1  0  0  0
 13 15  1  0  0  0
 17 16  1  0  0  0
 17 18  1  0  0  0
 19 17  1  0  0  0
 19 20  1  0  0  0
 32 19  1  0  0  0
 20 21  1  0  0  0
 21 22  2  0  0  0
 21 23  1  0  0  0
 23 24  1  0  0  0
 24 25  1  0  0  0
 24 31  1  0  0  0
 25 26  1  0  0  0
 27 26  1  0  0  0
 27 28  1  0  0  0
 31 27  1  0  0  0
 29 28  1  0  0  0
 30 29  1  0  0  0
 31 30  1  0  0  0
 38 32  1  0  0  0
 33 34  4  0  0  0
 33 38  4  0  0  0
 34 35  4  0  0  0
 35 36  4  0  0  0
 36 37  4  0  0  0
 37 38  4  0  0  0
  1 39  1  0  0  0
  1 40  1  0  0  0
  3 41  1  0  0  0
  4 42  1  0  0  0
  6 43  1  0  0  0
  7 44  1  0  0  0
 12 45  1  0  0  0
 12 46  1  0  0  0
 13 47  1  0  0  0
 14 48  1  0  0  0
 14 49  1  0  0  0
 14 50  1  0  0  0
 15 51  1  0  0  0
 15 52  1  0  0  0
 15 53  1  0  0  0
 16 54  1  0  0  0
 16 55  1  0  0  0
 17 56  1  0  0  0
 18 57  1  0  0  0
 19 58  1  0  0  0
 20 59  1  0  0  0
 24 60  1  0  0  0
 25 61  1  0  0  0
 25 62  1  0  0  0
 27 63  1  0  0  0
 29 64  1  0  0  0
 29 65  1  0  0  0
 30 66  1  0  0  0
 30 67  1  0  0  0
 31 68  1  0  0  0
 32 69  1  0  0  0
 32 70  1  0  0  0
 33 71  1  0  0  0
 34 72  1  0  0  0
 35 73  1  0  0  0
 36 74  1  0  0  0
 37 75  1  0  0  0
M  END
$$$$
