### 
### Created by X-TOOL on Sun Jun  3 12:50:54 2007
### 

@<TRIPOS>MOLECULE
2il2_ligand
   82    86     1     0     0
SMALL
GAST_HUCK


@<TRIPOS>ATOM
      1 N1        -56.9420  -18.1290  -35.1670 N.ar      1 SUB1       -0.251
      2 N3        -55.9500  -20.1930  -34.7420 N.pl3     1 SUB1       -0.303
      3 C4        -56.4020  -18.6700  -32.8460 C.ar      1 SUB1        0.030
      4 C5        -56.9640  -16.8510  -31.0380 C.3       1 SUB1       -0.007
      5 C6        -55.8280  -15.8800  -30.8180 C.3       1 SUB1       -0.052
      6 C7        -56.5010  -20.3830  -30.9480 C.ar      1 SUB1       -0.082
      7 C8        -55.7560  -21.1320  -30.0410 C.ar      1 SUB1       -0.047
      8 C10       -53.6610  -20.2180  -30.8950 C.ar      1 SUB1        0.099
      9 C13       -51.4960  -22.5700  -28.2630 C.3       1 SUB1       -0.025
     10 C15       -51.5760  -21.0500  -30.1630 C.2       1 SUB1        0.256
     11 C17       -51.4790  -17.7810  -31.0540 C.3       1 SUB1       -0.004
     12 C20       -56.0640  -20.5130  -36.1470 C.3       1 SUB1        0.046
     13 C21       -54.9800  -21.4490  -36.6400 C.3       1 SUB1        0.047
     14 C22       -52.4610  -23.3440  -30.4760 C.3       1 SUB1       -0.025
     15 C24       -50.9720  -25.8590  -35.9970 C.ar      1 SUB1       -0.054
     16 C26       -52.0240  -25.4720  -38.2060 C.ar      1 SUB1       -0.018
     17 C28       -51.3260  -27.7000  -37.5830 C.ar      1 SUB1       -0.061
     18 O5        -51.9700  -20.7280  -35.9970 O.2       1 SUB1       -0.150
     19 S1        -52.4220  -21.1570  -37.3030 S.o2      1 SUB1        0.068
     20 O4        -51.6920  -20.5020  -38.3550 O.2       1 SUB1       -0.150
     21 C30       -52.2580  -22.7310  -37.5480 C.ar      1 SUB1        0.109
     22 C29       -51.6700  -23.5920  -36.6010 C.ar      1 SUB1       -0.027
     23 C25       -51.5450  -24.9560  -36.8900 C.ar      1 SUB1       -0.016
     24 C31       -52.6990  -23.2230  -38.7820 C.ar      1 SUB1       -0.034
     25 C32       -52.5860  -24.5740  -39.1090 C.ar      1 SUB1       -0.052
     26 C27       -51.9000  -26.8330  -38.5150 C.ar      1 SUB1       -0.054
     27 C23       -50.8680  -27.2180  -36.3450 C.ar      1 SUB1       -0.061
     28 N6        -53.9650  -20.7380  -37.3890 N.am      1 SUB1       -0.245
     29 C1        -56.4250  -19.0180  -34.2910 C.ar      1 SUB1        0.113
     30 C3        -56.9430  -17.3500  -32.4630 C.ar      1 SUB1        0.024
     31 N2        -57.4290  -16.5700  -33.4550 N.ar      1 SUB1       -0.274
     32 C2        -57.4150  -16.9350  -34.7530 C.ar      1 SUB1        0.162
     33 N4        -57.9190  -16.0710  -35.6560 N.pl3     1 SUB1       -0.308
     34 C12       -55.8070  -19.5530  -31.8250 C.ar      1 SUB1       -0.047
     35 C11       -54.4180  -19.4760  -31.7980 C.ar      1 SUB1       -0.045
     36 N5        -52.2380  -20.1460  -30.8900 N.am      1 SUB1       -0.219
     37 C16       -51.4910  -19.1560  -31.7090 C.3       1 SUB1        0.056
     38 C18       -50.8590  -16.7870  -32.0420 C.3       1 SUB1        0.050
     39 O1        -50.7030  -15.5080  -31.4540 O.3       1 SUB1       -0.383
     40 C19       -50.1970  -14.5020  -32.3370 C.3       1 SUB1        0.036
     41 O3        -50.3690  -21.0000  -30.0680 O.2       1 SUB1       -0.335
     42 C14       -52.3160  -22.1850  -29.4840 C.3       1 SUB1        0.166
     43 O2        -53.6390  -21.8010  -29.0990 O.3       1 SUB1       -0.313
     44 C9        -54.3530  -21.0550  -30.0090 C.ar      1 SUB1        0.112
     45 H         -55.5131  -20.8525  -34.0981 H         1 SUB1        0.185
     46 H         -57.9111  -16.3463  -30.8472 H         1 SUB1        0.047
     47 H         -56.8518  -17.6962  -30.3589 H         1 SUB1        0.047
     48 H         -54.8800  -16.3823  -31.0103 H         1 SUB1        0.026
     49 H         -55.9373  -15.0349  -31.4977 H         1 SUB1        0.026
     50 H         -55.8499  -15.5245  -29.7878 H         1 SUB1        0.026
     51 H         -57.5890  -20.4441  -30.9709 H         1 SUB1        0.045
     52 H         -56.2710  -21.7910  -29.3420 H         1 SUB1        0.050
     53 H         -50.5025  -22.8877  -28.5795 H         1 SUB1        0.025
     54 H         -51.4094  -21.7099  -27.5991 H         1 SUB1        0.025
     55 H         -51.9902  -23.3875  -27.7381 H         1 SUB1        0.025
     56 H         -50.8955  -17.8088  -30.1338 H         1 SUB1        0.031
     57 H         -52.4949  -17.4762  -30.8028 H         1 SUB1        0.031
     58 H         -55.9725  -19.5811  -36.7049 H         1 SUB1        0.054
     59 H         -57.0216  -21.0126  -36.2938 H         1 SUB1        0.054
     60 H         -55.4363  -22.1909  -37.2953 H         1 SUB1        0.050
     61 H         -54.5077  -21.9158  -35.7757 H         1 SUB1        0.050
     62 H         -51.4733  -23.6551  -30.8162 H         1 SUB1        0.025
     63 H         -52.9578  -24.1808  -29.9850 H         1 SUB1        0.025
     64 H         -53.0547  -23.0176  -31.3299 H         1 SUB1        0.025
     65 H         -50.6050  -25.5131  -35.0307 H         1 SUB1        0.062
     66 H         -51.2323  -28.7603  -37.8179 H         1 SUB1        0.062
     67 H         -51.3144  -23.1986  -35.6487 H         1 SUB1        0.064
     68 H         -53.1404  -22.5351  -39.5032 H         1 SUB1        0.064
     69 H         -52.9397  -24.9287  -40.0771 H         1 SUB1        0.062
     70 H         -52.2489  -27.2121  -39.4755 H         1 SUB1        0.062
     71 H         -50.4207  -27.9150  -35.6363 H         1 SUB1        0.062
     72 H         -54.2383  -19.9551  -37.9829 H         1 SUB1        0.167
     73 H         -58.2949  -15.1739  -35.3489 H         1 SUB1        0.183
     74 H         -57.9246  -16.3141  -36.6466 H         1 SUB1        0.183
     75 H         -53.9091  -18.8177  -32.5021 H         1 SUB1        0.044
     76 H         -50.4611  -19.4988  -31.8088 H         1 SUB1        0.059
     77 H         -51.9816  -19.0712  -32.6786 H         1 SUB1        0.059
     78 H         -51.5206  -16.6950  -32.9034 H         1 SUB1        0.056
     79 H         -49.8765  -17.1564  -32.3359 H         1 SUB1        0.056
     80 H         -49.2157  -14.8027  -32.7041 H         1 SUB1        0.052
     81 H         -50.8798  -14.3818  -33.1781 H         1 SUB1        0.052
     82 H         -50.1114  -13.5579  -31.7991 H         1 SUB1        0.052
@<TRIPOS>BOND
     1   29    1 ar 
     2    1   32 ar 
     3    2   12 1  
     4   29    2 1  
     5    3   29 ar 
     6    3   30 ar 
     7   34    3 1  
     8    4    5 1  
     9   30    4 1  
    10    7    6 ar 
    11   34    6 ar 
    12   44    7 ar 
    13    8   35 ar 
    14   36    8 1  
    15    8   44 ar 
    16   42    9 1  
    17   36   10 am 
    18   10   41 2  
    19   10   42 1  
    20   37   11 1  
    21   11   38 1  
    22   12   13 1  
    23   13   28 1  
    24   42   14 1  
    25   23   15 ar 
    26   15   27 ar 
    27   23   16 ar 
    28   25   16 ar 
    29   16   26 ar 
    30   26   17 ar 
    31   27   17 ar 
    32   19   18 2  
    33   19   20 2  
    34   19   21 1  
    35   28   19 1  
    36   21   22 ar 
    37   21   24 ar 
    38   22   23 ar 
    39   24   25 ar 
    40   30   31 ar 
    41   31   32 ar 
    42   32   33 1  
    43   35   34 ar 
    44   36   37 1  
    45   38   39 1  
    46   39   40 1  
    47   42   43 1  
    48   43   44 1  
    49    2   45 1  
    50    4   46 1  
    51    4   47 1  
    52    5   48 1  
    53    5   49 1  
    54    5   50 1  
    55    6   51 1  
    56    7   52 1  
    57    9   53 1  
    58    9   54 1  
    59    9   55 1  
    60   11   56 1  
    61   11   57 1  
    62   12   58 1  
    63   12   59 1  
    64   13   60 1  
    65   13   61 1  
    66   14   62 1  
    67   14   63 1  
    68   14   64 1  
    69   15   65 1  
    70   17   66 1  
    71   22   67 1  
    72   24   68 1  
    73   25   69 1  
    74   26   70 1  
    75   27   71 1  
    76   28   72 1  
    77   33   73 1  
    78   33   74 1  
    79   35   75 1  
    80   37   76 1  
    81   37   77 1  
    82   38   78 1  
    83   38   79 1  
    84   40   80 1  
    85   40   81 1  
    86   40   82 1  
@<TRIPOS>SUBSTRUCTURE
     1 SUB1        1 GROUP

