2il2_ligand
  -I-interpret- 

 82 86  0  0  0  0  0  0  0  0999 V2000
  -56.9420  -18.1290  -35.1670 N   0  0  0  0  0
  -55.9500  -20.1930  -34.7420 N   0  0  0  0  0
  -56.4020  -18.6700  -32.8460 C   0  0  0  0  0
  -56.9640  -16.8510  -31.0380 C   0  0  0  0  0
  -55.8280  -15.8800  -30.8180 C   0  0  0  0  0
  -56.5010  -20.3830  -30.9480 C   0  0  0  0  0
  -55.7560  -21.1320  -30.0410 C   0  0  0  0  0
  -53.6610  -20.2180  -30.8950 C   0  0  0  0  0
  -51.4960  -22.5700  -28.2630 C   0  0  0  0  0
  -51.5760  -21.0500  -30.1630 C   0  0  0  0  0
  -51.4790  -17.7810  -31.0540 C   0  0  0  0  0
  -56.0640  -20.5130  -36.1470 C   0  0  0  0  0
  -54.9800  -21.4490  -36.6400 C   0  0  0  0  0
  -52.4610  -23.3440  -30.4760 C   0  0  0  0  0
  -50.9720  -25.8590  -35.9970 C   0  0  0  0  0
  -52.0240  -25.4720  -38.2060 C   0  0  0  0  0
  -51.3260  -27.7000  -37.5830 C   0  0  0  0  0
  -51.9700  -20.7280  -35.9970 O   0  0  0  0  0
  -52.4220  -21.1570  -37.3030 S   0  0  0  0  0
  -51.6920  -20.5020  -38.3550 O   0  0  0  0  0
  -52.2580  -22.7310  -37.5480 C   0  0  0  0  0
  -51.6700  -23.5920  -36.6010 C   0  0  0  0  0
  -51.5450  -24.9560  -36.8900 C   0  0  0  0  0
  -52.6990  -23.2230  -38.7820 C   0  0  0  0  0
  -52.5860  -24.5740  -39.1090 C   0  0  0  0  0
  -51.9000  -26.8330  -38.5150 C   0  0  0  0  0
  -50.8680  -27.2180  -36.3450 C   0  0  0  0  0
  -53.9650  -20.7380  -37.3890 N   0  0  0  0  0
  -56.4250  -19.0180  -34.2910 C   0  0  0  0  0
  -56.9430  -17.3500  -32.4630 C   0  0  0  0  0
  -57.4290  -16.5700  -33.4550 N   0  0  0  0  0
  -57.4150  -16.9350  -34.7530 C   0  0  0  0  0
  -57.9190  -16.0710  -35.6560 N   0  0  0  0  0
  -55.8070  -19.5530  -31.8250 C   0  0  0  0  0
  -54.4180  -19.4760  -31.7980 C   0  0  0  0  0
  -52.2380  -20.1460  -30.8900 N   0  0  0  0  0
  -51.4910  -19.1560  -31.7090 C   0  0  0  0  0
  -50.8590  -16.7870  -32.0420 C   0  0  0  0  0
  -50.7030  -15.5080  -31.4540 O   0  0  0  0  0
  -50.1970  -14.5020  -32.3370 C   0  0  0  0  0
  -50.3690  -21.0000  -30.0680 O   0  0  0  0  0
  -52.3160  -22.1850  -29.4840 C   0  0  0  0  0
  -53.6390  -21.8010  -29.0990 O   0  0  0  0  0
  -54.3530  -21.0550  -30.0090 C   0  0  0  0  0
  -55.5131  -20.8525  -34.0981 H   0  0  0  0  0
  -57.9111  -16.3463  -30.8472 H   0  0  0  0  0
  -56.8518  -17.6962  -30.3589 H   0  0  0  0  0
  -54.8800  -16.3823  -31.0103 H   0  0  0  0  0
  -55.9373  -15.0349  -31.4977 H   0  0  0  0  0
  -55.8499  -15.5245  -29.7878 H   0  0  0  0  0
  -57.5890  -20.4441  -30.9709 H   0  0  0  0  0
  -56.2710  -21.7910  -29.3420 H   0  0  0  0  0
  -50.5025  -22.8877  -28.5795 H   0  0  0  0  0
  -51.4094  -21.7099  -27.5991 H   0  0  0  0  0
  -51.9902  -23.3875  -27.7381 H   0  0  0  0  0
  -50.8955  -17.8088  -30.1338 H   0  0  0  0  0
  -52.4949  -17.4762  -30.8028 H   0  0  0  0  0
  -55.9725  -19.5811  -36.7049 H   0  0  0  0  0
  -57.0216  -21.0126  -36.2938 H   0  0  0  0  0
  -55.4363  -22.1909  -37.2953 H   0  0  0  0  0
  -54.5077  -21.9158  -35.7757 H   0  0  0  0  0
  -51.4733  -23.6551  -30.8162 H   0  0  0  0  0
  -52.9578  -24.1808  -29.9850 H   0  0  0  0  0
  -53.0547  -23.0176  -31.3299 H   0  0  0  0  0
  -50.6050  -25.5131  -35.0307 H   0  0  0  0  0
  -51.2323  -28.7603  -37.8179 H   0  0  0  0  0
  -51.3144  -23.1986  -35.6487 H   0  0  0  0  0
  -53.1404  -22.5351  -39.5032 H   0  0  0  0  0
  -52.9397  -24.9287  -40.0771 H   0  0  0  0  0
  -52.2489  -27.2121  -39.4755 H   0  0  0  0  0
  -50.4207  -27.9150  -35.6363 H   0  0  0  0  0
  -54.2383  -19.9551  -37.9829 H   0  0  0  0  0
  -58.2949  -15.1739  -35.3489 H   0  0  0  0  0
  -57.9246  -16.3141  -36.6466 H   0  0  0  0  0
  -53.9091  -18.8177  -32.5021 H   0  0  0  0  0
  -50.4611  -19.4988  -31.8088 H   0  0  0  0  0
  -51.9816  -19.0712  -32.6786 H   0  0  0  0  0
  -51.5206  -16.6950  -32.9034 H   0  0  0  0  0
  -49.8765  -17.1564  -32.3359 H   0  0  0  0  0
  -49.2157  -14.8027  -32.7041 H   0  0  0  0  0
  -50.8798  -14.3818  -33.1781 H   0  0  0  0  0
  -50.1114  -13.5579  -31.7991 H   0  0  0  0  0
 29  1  4  0  0  0
  1 32  4  0  0  0
  2 12  1  0  0  0
 29  2  1  0  0  0
  3 29  4  0  0  0
  3 30  4  0  0  0
 34  3  1  0  0  0
  4  5  1  0  0  0
 30  4  1  0  0  0
  7  6  4  0  0  0
 34  6  4  0  0  0
 44  7  4  0  0  0
  8 35  4  0  0  0
 36  8  1  0  0  0
  8 44  4  0  0  0
 42  9  1  0  0  0
 36 10  1  0  0  0
 10 41  2  0  0  0
 10 42  1  0  0  0
 37 11  1  0  0  0
 11 38  1  0  0  0
 12 13  1  0  0  0
 13 28  1  0  0  0
 42 14  1  0  0  0
 23 15  4  0  0  0
 15 27  4  0  0  0
 23 16  4  0  0  0
 25 16  4  0  0  0
 16 26  4  0  0  0
 26 17  4  0  0  0
 27 17  4  0  0  0
 19 18  2  0  0  0
 19 20  2  0  0  0
 19 21  1  0  0  0
 28 19  1  0  0  0
 21 22  4  0  0  0
 21 24  4  0  0  0
 22 23  4  0  0  0
 24 25  4  0  0  0
 30 31  4  0  0  0
 31 32  4  0  0  0
 32 33  1  0  0  0
 35 34  4  0  0  0
 36 37  1  0  0  0
 38 39  1  0  0  0
 39 40  1  0  0  0
 42 43  1  0  0  0
 43 44  1  0  0  0
  2 45  1  0  0  0
  4 46  1  0  0  0
  4 47  1  0  0  0
  5 48  1  0  0  0
  5 49  1  0  0  0
  5 50  1  0  0  0
  6 51  1  0  0  0
  7 52  1  0  0  0
  9 53  1  0  0  0
  9 54  1  0  0  0
  9 55  1  0  0  0
 11 56  1  0  0  0
 11 57  1  0  0  0
 12 58  1  0  0  0
 12 59  1  0  0  0
 13 60  1  0  0  0
 13 61  1  0  0  0
 14 62  1  0  0  0
 14 63  1  0  0  0
 14 64  1  0  0  0
 15 65  1  0  0  0
 17 66  1  0  0  0
 22 67  1  0  0  0
 24 68  1  0  0  0
 25 69  1  0  0  0
 26 70  1  0  0  0
 27 71  1  0  0  0
 28 72  1  0  0  0
 33 73  1  0  0  0
 33 74  1  0  0  0
 35 75  1  0  0  0
 37 76  1  0  0  0
 37 77  1  0  0  0
 38 78  1  0  0  0
 38 79  1  0  0  0
 40 80  1  0  0  0
 40 81  1  0  0  0
 40 82  1  0  0  0
M  END
$$$$
