1lkk_ligand
  -I-interpret- 

 80 80  0  0  0  0  0  0  0  0999 V2000
   28.8610   -4.7940   -3.5820 C   0  0  0  0  0
   28.4180   -4.3080   -4.3090 H   0  0  0  0  0
   28.4750   -5.6920   -3.5070 H   0  0  0  0  0
   29.8190   -4.8640   -3.7720 H   0  0  0  0  0
   28.6600   -4.0550   -2.2920 C   0  0  0  0  0
   29.1410   -4.4820   -1.2000 O   0  0  0  0  0
   27.9920   -2.9090   -2.3540 N   0  0  0  0  0
   27.7720   -2.0420   -1.2120 C   0  0  0  0  0
   26.2910   -1.9860   -0.8630 C   0  0  0  0  0
   25.4100   -1.8900   -1.7450 O   0  0  0  0  0
   28.2900   -0.6370   -1.5010 C   0  0  0  0  0
   29.8120   -0.5510   -1.6050 C   0  0  0  0  0
   30.5680   -0.4220   -0.4380 C   0  0  0  0  0
   30.4580   -0.5760   -2.8230 C   0  0  0  0  0
   31.9510   -0.3440   -0.5240 C   0  0  0  0  0
   31.8470   -0.5120   -2.9190 C   0  0  0  0  0
   32.5660   -0.3850   -1.7380 C   0  0  0  0  0
   33.9590   -0.1890   -1.8140 O   0  0  0  0  0
   27.6650   -2.6620   -3.1320 H   0  0  0  0  0
   28.2720   -2.4120   -0.4290 H   0  0  0  0  0
   27.8940   -0.3190   -2.3510 H   0  0  0  0  0
   27.9840   -0.0290   -0.7820 H   0  0  0  0  0
   30.1390   -0.3880    0.4090 H   0  0  0  0  0
   29.9420   -0.6390   -3.6180 H   0  0  0  0  0
   32.4700   -0.2620    0.2670 H   0  0  0  0  0
   32.2850   -0.5530   -3.7610 H   0  0  0  0  0
   26.0100   -1.9430    0.4220 N   0  0  0  0  0
   24.7090   -1.5990    0.9540 C   0  0  0  0  0
   24.5340   -0.0730    0.8900 C   0  0  0  0  0
   25.4950    0.6790    0.9110 O   0  0  0  0  0
   24.6070   -2.0780    2.4120 C   0  0  0  0  0
   24.3580   -3.5510    2.5580 C   0  0  0  0  0
   22.9540   -3.9630    2.1470 C   0  0  0  0  0
   21.9780   -3.5060    2.8140 O   0  5  0  0  0
   22.8010   -4.5810    1.0880 O   0  0  0  0  0
   26.6520   -2.1360    0.9930 H   0  0  0  0  0
   23.9970   -2.0390    0.4070 H   0  0  0  0  0
   25.4490   -1.8490    2.8810 H   0  0  0  0  0
   23.8730   -1.5860    2.8580 H   0  0  0  0  0
   25.0140   -4.0440    2.0030 H   0  0  0  0  0
   24.5060   -3.8100    3.5020 H   0  0  0  0  0
   23.2600    0.3060    0.8790 N   0  0  0  0  0
   22.8070    1.6850    0.9550 C   0  0  0  0  0
   21.9240    1.8330    2.2120 C   0  0  0  0  0
   21.1770    0.9190    2.5730 O   0  0  0  0  0
   21.9690    2.0440   -0.2740 C   0  0  0  0  0
   22.6690    1.9710   -1.5960 C   0  0  0  0  0
   23.5940    3.1020   -1.9320 C   0  0  0  0  0
   23.8730    3.9610   -1.0750 O   0  0  0  0  0
   24.0760    3.1340   -3.0930 O   0  5  0  0  0
   22.6480   -0.3230    0.8210 H   0  0  0  0  0
   23.5940    2.2980    1.0190 H   0  0  0  0  0
   21.1870    1.4390   -0.3030 H   0  0  0  0  0
   21.6260    2.9650   -0.1550 H   0  0  0  0  0
   23.1890    1.1290   -1.6230 H   0  0  0  0  0
   21.9810    1.9140   -2.3060 H   0  0  0  0  0
   21.9430    3.0130    2.8020 N   0  0  0  0  0
   20.8590    3.3710    3.7270 C   0  0  0  0  0
   19.5540    3.5240    2.9430 C   0  0  0  0  0
   19.5830    4.1690    1.8700 O   0  0  0  0  0
   21.2430    4.6690    4.4870 C   0  0  0  0  0
   22.3670    4.3990    5.4700 C   0  0  0  0  0
   20.0300    5.2890    5.1220 C   0  0  0  0  0
   22.8740    5.5610    6.2660 C   0  0  0  0  0
   18.5250    2.9450    3.3970 O   0  5  0  0  0
   22.5980    3.5790    2.6440 H   0  0  0  0  0
   20.7480    2.6320    4.3920 H   0  0  0  0  0
   21.5890    5.3190    3.8100 H   0  0  0  0  0
   22.0580    3.7050    6.1040 H   0  0  0  0  0
   23.1290    4.0180    4.9660 H   0  0  0  0  0
   19.3430    5.4380    4.4390 H   0  0  0  0  0
   19.6790    4.6870    5.8120 H   0  0  0  0  0
   20.2770    6.1450    5.5300 H   0  0  0  0  0
   22.1430    5.9350    6.8000 H   0  0  0  0  0
   23.5930    5.2600    6.8610 H   0  0  0  0  0
   23.2200    6.2480    5.6580 H   0  0  0  0  0
   35.0610   -1.3700   -1.5240 P   0  0  0  0  0
   35.5390   -1.8270   -2.8860 O   0  5  0  0  0
   34.3780   -2.4450   -0.7200 O   0  0  0  0  0
   36.1530   -0.5940   -0.7600 O   0  5  0  0  0
  1  4  1  0  0  0
  1  3  1  0  0  0
  1  2  1  0  0  0
  5  6  2  0  0  0
  8 20  1  0  0  0
  8  9  1  0  0  0
  8 11  1  0  0  0
  7  8  1  0  0  0
  7 19  1  0  0  0
 11 22  1  0  0  0
 11 21  1  0  0  0
 11 12  1  0  0  0
 12 14  4  0  0  0
 12 13  4  0  0  0
 13 23  1  0  0  0
 13 15  4  0  0  0
 15 25  1  0  0  0
 15 17  4  0  0  0
 17 18  1  0  0  0
 16 17  4  0  0  0
 16 26  1  0  0  0
 14 16  4  0  0  0
 14 24  1  0  0  0
  9 10  2  0  0  0
 28 37  1  0  0  0
 28 29  1  0  0  0
 28 31  1  0  0  0
 27 28  1  0  0  0
 27 36  1  0  0  0
 31 38  1  0  0  0
 31 39  1  0  0  0
 31 32  1  0  0  0
 32 40  1  0  0  0
 32 41  1  0  0  0
 32 33  1  0  0  0
 33 34  1  0  0  0
 33 35  2  0  0  0
 29 30  2  0  0  0
 43 52  1  0  0  0
 43 44  1  0  0  0
 43 46  1  0  0  0
 42 43  1  0  0  0
 42 51  1  0  0  0
 46 53  1  0  0  0
 46 54  1  0  0  0
 46 47  1  0  0  0
 47 55  1  0  0  0
 47 56  1  0  0  0
 47 48  1  0  0  0
 48 49  2  0  0  0
 48 50  1  0  0  0
 44 45  2  0  0  0
 58 67  1  0  0  0
 58 59  1  0  0  0
 58 61  1  0  0  0
 57 58  1  0  0  0
 57 66  1  0  0  0
 61 68  1  0  0  0
 61 62  1  0  0  0
 61 63  1  0  0  0
 63 71  1  0  0  0
 63 72  1  0  0  0
 63 73  1  0  0  0
 62 69  1  0  0  0
 62 70  1  0  0  0
 62 64  1  0  0  0
 64 74  1  0  0  0
 64 75  1  0  0  0
 64 76  1  0  0  0
 59 65  1  0  0  0
 59 60  2  0  0  0
 77 80  1  0  0  0
 77 79  2  0  0  0
 77 78  1  0  0  0
  5  7  1  0  0  0
  9 27  1  0  0  0
 29 42  1  0  0  0
 44 57  1  0  0  0
 18 77  1  0  0  0
  1  5  1  0  0  0
M  END
$$$$
