### 
### Created by X-TOOL on Mon Oct 24 21:52:36 2005
### 

@<TRIPOS>MOLECULE
1lkk_ligand
   80    80     1     0     0
SMALL
GAST_HUCK


@<TRIPOS>ATOM
      1 CH3        28.8610   -4.7940   -3.5820 C.3       1 SUB1        0.026
      2 H11        28.4180   -4.3080   -4.3090 H         1 SUB1        0.047
      3 H12        28.4750   -5.6920   -3.5070 H         1 SUB1        0.047
      4 H13        29.8190   -4.8640   -3.7720 H         1 SUB1        0.047
      5 C          28.6600   -4.0550   -2.2920 C.2       1 SUB1        0.175
      6 O          29.1410   -4.4820   -1.2000 O.2       1 SUB1       -0.397
      7 N          27.9920   -2.9090   -2.3540 N.am      1 SUB1       -0.264
      8 CA         27.7720   -2.0420   -1.2120 C.3       1 SUB1        0.138
      9 C          26.2910   -1.9860   -0.8630 C.2       1 SUB1        0.206
     10 O          25.4100   -1.8900   -1.7450 O.2       1 SUB1       -0.394
     11 CB         28.2900   -0.6370   -1.5010 C.3       1 SUB1       -0.000
     12 CG         29.8120   -0.5510   -1.6050 C.ar      1 SUB1       -0.145
     13 CD1        30.5680   -0.4220   -0.4380 C.ar      1 SUB1       -0.179
     14 CD2        30.4580   -0.5760   -2.8230 C.ar      1 SUB1       -0.179
     15 CE1        31.9510   -0.3440   -0.5240 C.ar      1 SUB1       -0.140
     16 CE2        31.8470   -0.5120   -2.9190 C.ar      1 SUB1       -0.140
     17 CZ         32.5660   -0.3850   -1.7380 C.ar      1 SUB1        0.074
     18 OH         33.9590   -0.1890   -1.8140 O.3       1 SUB1       -0.110
     19 H71        27.6650   -2.6620   -3.1320 H         1 SUB1        0.188
     20 H81        28.2720   -2.4120   -0.4290 H         1 SUB1        0.082
     21 H111       27.8940   -0.3190   -2.3510 H         1 SUB1        0.044
     22 H112       27.9840   -0.0290   -0.7820 H         1 SUB1        0.044
     23 H131       30.1390   -0.3880    0.4090 H         1 SUB1       -0.021
     24 H141       29.9420   -0.6390   -3.6180 H         1 SUB1       -0.021
     25 H151       32.4700   -0.2620    0.2670 H         1 SUB1       -0.018
     26 H161       32.2850   -0.5530   -3.7610 H         1 SUB1       -0.018
     27 N          26.0100   -1.9430    0.4220 N.am      1 SUB1       -0.263
     28 CA         24.7090   -1.5990    0.9540 C.3       1 SUB1        0.134
     29 C          24.5340   -0.0730    0.8900 C.2       1 SUB1        0.204
     30 O          25.4950    0.6790    0.9110 O.2       1 SUB1       -0.394
     31 CB         24.6070   -2.0780    2.4120 C.3       1 SUB1       -0.001
     32 CG         24.3580   -3.5510    2.5580 C.3       1 SUB1       -0.010
     33 CD         22.9540   -3.9630    2.1470 C.2       1 SUB1        0.028
     34 OE1        21.9780   -3.5060    2.8140 O.co2     1 SUB1       -0.567
     35 OE2        22.8010   -4.5810    1.0880 O.co2     1 SUB1       -0.567
     36 H271       26.6520   -2.1360    0.9930 H         1 SUB1        0.188
     37 H281       23.9970   -2.0390    0.4070 H         1 SUB1        0.080
     38 H311       25.4490   -1.8490    2.8810 H         1 SUB1        0.035
     39 H312       23.8730   -1.5860    2.8580 H         1 SUB1        0.035
     40 H321       25.0140   -4.0440    2.0030 H         1 SUB1        0.049
     41 H322       24.5060   -3.8100    3.5020 H         1 SUB1        0.049
     42 N          23.2600    0.3060    0.8790 N.am      1 SUB1       -0.263
     43 CA         22.8070    1.6850    0.9550 C.3       1 SUB1        0.134
     44 C          21.9240    1.8330    2.2120 C.2       1 SUB1        0.205
     45 O          21.1770    0.9190    2.5730 O.2       1 SUB1       -0.394
     46 CB         21.9690    2.0440   -0.2740 C.3       1 SUB1       -0.001
     47 CG         22.6690    1.9710   -1.5960 C.3       1 SUB1       -0.010
     48 CD         23.5940    3.1020   -1.9320 C.2       1 SUB1        0.028
     49 OE1        23.8730    3.9610   -1.0750 O.co2     1 SUB1       -0.567
     50 OE2        24.0760    3.1340   -3.0930 O.co2     1 SUB1       -0.567
     51 H421       22.6480   -0.3230    0.8210 H         1 SUB1        0.188
     52 H431       23.5940    2.2980    1.0190 H         1 SUB1        0.080
     53 H461       21.1870    1.4390   -0.3030 H         1 SUB1        0.035
     54 H462       21.6260    2.9650   -0.1550 H         1 SUB1        0.035
     55 H471       23.1890    1.1290   -1.6230 H         1 SUB1        0.049
     56 H472       21.9810    1.9140   -2.3060 H         1 SUB1        0.049
     57 N          21.9430    3.0130    2.8020 N.am      1 SUB1       -0.268
     58 CA         20.8590    3.3710    3.7270 C.3       1 SUB1        0.084
     59 C          19.5540    3.5240    2.9430 C.2       1 SUB1        0.053
     60 O          19.5830    4.1690    1.8700 O.co2     1 SUB1       -0.564
     61 CB         21.2430    4.6690    4.4870 C.3       1 SUB1       -0.010
     62 CG1        22.3670    4.3990    5.4700 C.3       1 SUB1       -0.048
     63 CG2        20.0300    5.2890    5.1220 C.3       1 SUB1       -0.058
     64 CD1        22.8740    5.5610    6.2660 C.3       1 SUB1       -0.065
     65 OXT        18.5250    2.9450    3.3970 O.co2     1 SUB1       -0.564
     66 H571       22.5980    3.5790    2.6440 H         1 SUB1        0.190
     67 H581       20.7480    2.6320    4.3920 H         1 SUB1        0.078
     68 H611       21.5890    5.3190    3.8100 H         1 SUB1        0.036
     69 H621       22.0580    3.7050    6.1040 H         1 SUB1        0.027
     70 H622       23.1290    4.0180    4.9660 H         1 SUB1        0.027
     71 H631       19.3430    5.4380    4.4390 H         1 SUB1        0.024
     72 H632       19.6790    4.6870    5.8120 H         1 SUB1        0.024
     73 H633       20.2770    6.1450    5.5300 H         1 SUB1        0.024
     74 H641       22.1430    5.9350    6.8000 H         1 SUB1        0.023
     75 H642       23.5930    5.2600    6.8610 H         1 SUB1        0.023
     76 H643       23.2200    6.2480    5.6580 H         1 SUB1        0.023
     77 P          35.0610   -1.3700   -1.5240 P.3       1 SUB1        0.476
     78 O1P        35.5390   -1.8270   -2.8860 O.co2     1 SUB1       -0.376
     79 O2P        34.3780   -2.4450   -0.7200 O.co2     1 SUB1       -0.376
     80 O3P        36.1530   -0.5940   -0.7600 O.co2     1 SUB1       -0.376
@<TRIPOS>BOND
     1    1    4 1  
     2    1    3 1  
     3    1    2 1  
     4    5    6 2  
     5    8   20 1  
     6    8    9 1  
     7    8   11 1  
     8    7    8 1  
     9    7   19 1  
    10   11   22 1  
    11   11   21 1  
    12   11   12 1  
    13   12   14 ar 
    14   12   13 ar 
    15   13   23 1  
    16   13   15 ar 
    17   15   25 1  
    18   15   17 ar 
    19   17   18 1  
    20   16   17 ar 
    21   16   26 1  
    22   14   16 ar 
    23   14   24 1  
    24    9   10 2  
    25   28   37 1  
    26   28   29 1  
    27   28   31 1  
    28   27   28 1  
    29   27   36 1  
    30   31   38 1  
    31   31   39 1  
    32   31   32 1  
    33   32   40 1  
    34   32   41 1  
    35   32   33 1  
    36   33   34 2  
    37   33   35 2  
    38   29   30 2  
    39   43   52 1  
    40   43   44 1  
    41   43   46 1  
    42   42   43 1  
    43   42   51 1  
    44   46   53 1  
    45   46   54 1  
    46   46   47 1  
    47   47   55 1  
    48   47   56 1  
    49   47   48 1  
    50   48   49 2  
    51   48   50 2  
    52   44   45 2  
    53   58   67 1  
    54   58   59 1  
    55   58   61 1  
    56   57   58 1  
    57   57   66 1  
    58   61   68 1  
    59   61   62 1  
    60   61   63 1  
    61   63   71 1  
    62   63   72 1  
    63   63   73 1  
    64   62   69 1  
    65   62   70 1  
    66   62   64 1  
    67   64   74 1  
    68   64   75 1  
    69   64   76 1  
    70   59   65 2  
    71   59   60 2  
    72   77   80 2  
    73   77   79 2  
    74   77   78 2  
    75    5    7 am 
    76    9   27 am 
    77   29   42 am 
    78   44   57 am 
    79   18   77 1  
    80    1    5 1  
@<TRIPOS>SUBSTRUCTURE
     1 SUB1        1 GROUP

