### 
### Created by X-TOOL on Tue Oct 25 01:36:51 2005
### 

@<TRIPOS>MOLECULE
1lrt_ligand
   68    72     1     0     0
SMALL
GAST_HUCK


@<TRIPOS>ATOM
      1 AP        -34.9250   41.6780   40.7010 P.3       1 SUB1        0.130
      2 AO1       -36.3190   41.5350   41.1820 O.co2     1 SUB1       -0.544
      3 AO2       -34.3060   42.9820   41.1420 O.co2     1 SUB1       -0.544
      4 AO5       -34.8450   41.5810   39.1080 O.3       1 SUB1       -0.329
      5 AC5       -35.3390   40.5030   38.3530 C.3       1 SUB1        0.094
      6 AC4       -36.0310   41.0680   37.2010 C.3       1 SUB1        0.117
      7 AO4       -37.4100   41.4050   37.1830 O.3       1 SUB1       -0.345
      8 AC3       -35.3150   42.3220   36.6510 C.3       1 SUB1        0.114
      9 AO3       -34.8030   42.0880   35.3210 O.3       1 SUB1       -0.386
     10 AC2       -36.2940   43.4590   36.6320 C.3       1 SUB1        0.129
     11 AO2       -36.0640   44.2970   35.5010 O.3       1 SUB1       -0.385
     12 AC1       -37.6530   42.7630   36.7890 C.3       1 SUB1        0.172
     13 AN9       -38.5330   43.4040   37.6990 N.ar      1 SUB1       -0.260
     14 AC8       -38.4150   43.5560   39.0560 C.ar      1 SUB1        0.142
     15 AN7       -39.4390   44.2100   39.5970 N.ar      1 SUB1       -0.172
     16 AC5       -40.1880   44.4540   38.5450 C.ar      1 SUB1        0.238
     17 AC6       -41.4170   45.1320   38.5600 C.ar      1 SUB1        0.257
     18 AN6       -41.9460   45.5960   39.6800 N.pl3     1 SUB1       -0.255
     19 AN1       -42.0340   45.2810   37.3370 N.ar      1 SUB1       -0.126
     20 AC2       -41.5050   44.8060   36.1600 C.ar      1 SUB1        0.199
     21 AN3       -40.3380   44.1620   36.1700 N.ar      1 SUB1       -0.126
     22 AC4       -39.6470   43.9650   37.3380 C.ar      1 SUB1        0.229
     23 C3        -33.9210   40.3910   41.1120 C.3       1 SUB1        0.058
     24 NP        -32.3340   39.9570   40.6910 P.3       1 SUB1        0.130
     25 NO1       -31.6740   41.2750   40.7560 O.co2     1 SUB1       -0.544
     26 NO2       -32.3880   39.2790   39.3640 O.co2     1 SUB1       -0.544
     27 NO5       -31.7030   39.0350   41.8310 O.3       1 SUB1       -0.329
     28 NC5       -32.0620   37.6540   42.0860 C.3       1 SUB1        0.094
     29 NC4       -31.2540   37.1190   43.2910 C.3       1 SUB1        0.119
     30 NO4       -29.8600   36.7910   43.0510 O.3       1 SUB1       -0.346
     31 NC3       -31.3150   38.1750   44.3540 C.3       1 SUB1        0.115
     32 NO3       -31.9730   37.6200   45.4930 O.3       1 SUB1       -0.386
     33 NC2       -29.9070   38.5370   44.7440 C.3       1 SUB1        0.125
     34 NO2       -29.6280   38.5640   46.1220 O.3       1 SUB1       -0.384
     35 NC1       -29.0610   37.6230   43.9310 C.3       1 SUB1        0.154
     36 NC2       -27.8840   38.1850   43.2030 C.ar      1 SUB1        0.125
     37 NN3       -27.0490   39.0400   43.7760 N.ar      1 SUB1       -0.305
     38 NC4       -26.0760   39.3560   42.9080 C.ar      1 SUB1        0.085
     39 NC5       -26.1450   38.7530   41.7000 C.ar      1 SUB1        0.034
     40 NS1       -27.5120   37.7090   41.5970 S.3       1 SUB1        0.011
     41 NC6       -25.0230   40.3240   43.3390 C.2       1 SUB1        0.194
     42 NO6       -24.0840   40.6790   42.6310 O.2       1 SUB1       -0.393
     43 NN6       -25.2060   40.7730   44.5820 N.am      1 SUB1       -0.303
     44 H51       -36.0382   39.9074   38.9583 H         1 SUB1        0.064
     45 H52       -34.5081   39.8646   38.0182 H         1 SUB1        0.064
     46 H61       -35.9306   40.2811   36.4390 H         1 SUB1        0.065
     47 H81       -34.4751   42.5764   37.3141 H         1 SUB1        0.065
     48 H91       -34.3688   42.8726   35.0075 H         1 SUB1        0.210
     49 H101      -36.1393   44.0899   37.5197 H         1 SUB1        0.067
     50 H111      -36.1657   43.7881   34.7053 H         1 SUB1        0.210
     51 H121      -38.1458   42.7590   35.8056 H         1 SUB1        0.088
     52 H141      -37.5742   43.1820   39.6290 H         1 SUB1        0.118
     53 H181      -42.8499   46.0894   39.6569 H         1 SUB1        0.235
     54 H182      -41.4541   45.4640   40.5753 H         1 SUB1        0.235
     55 H201      -42.0356   44.9549   35.2265 H         1 SUB1        0.164
     56 H231      -34.5081   39.5109   40.8108 H         1 SUB1        0.038
     57 H232      -33.8810   40.4469   42.2098 H         1 SUB1        0.038
     58 H281      -31.8366   37.0474   41.1965 H         1 SUB1        0.064
     59 H282      -33.1371   37.5911   42.3099 H         1 SUB1        0.064
     60 H291      -31.7512   36.2061   43.6508 H         1 SUB1        0.065
     61 H311      -31.8545   39.0615   43.9892 H         1 SUB1        0.065
     62 H321      -32.0219   38.2749   46.1794 H         1 SUB1        0.210
     63 H331      -29.7208   39.5624   44.3920 H         1 SUB1        0.068
     64 H341      -29.7893   37.7046   46.4935 H         1 SUB1        0.210
     65 H351      -28.6208   36.9375   44.6701 H         1 SUB1        0.087
     66 H391      -25.4315   38.9066   40.8985 H         1 SUB1        0.086
     67 H431      -24.5612   41.4272   44.9773 H         1 SUB1        0.180
     68 H432      -25.9879   40.4553   45.1183 H         1 SUB1        0.180
@<TRIPOS>BOND
     1    1    2 2  
     2    1    3 2  
     3    1    4 1  
     4    1   23 1  
     5    4    5 1  
     6    5    6 1  
     7    6    7 1  
     8    6    8 1  
     9    7   12 1  
    10    8    9 1  
    11    8   10 1  
    12   10   11 1  
    13   10   12 1  
    14   12   13 1  
    15   13   14 ar 
    16   13   22 ar 
    17   14   15 ar 
    18   15   16 ar 
    19   16   17 ar 
    20   16   22 ar 
    21   17   18 1  
    22   17   19 ar 
    23   19   20 ar 
    24   20   21 ar 
    25   21   22 ar 
    26   23   24 1  
    27   24   25 2  
    28   24   26 2  
    29   24   27 1  
    30   27   28 1  
    31   28   29 1  
    32   29   30 1  
    33   29   31 1  
    34   30   35 1  
    35   31   32 1  
    36   31   33 1  
    37   33   34 1  
    38   33   35 1  
    39   35   36 1  
    40   36   37 ar 
    41   36   40 1  
    42   37   38 ar 
    43   38   39 ar 
    44   38   41 1  
    45   39   40 1  
    46   41   42 2  
    47   41   43 am 
    48    5   44 1  
    49    5   45 1  
    50    6   46 1  
    51    8   47 1  
    52    9   48 1  
    53   10   49 1  
    54   11   50 1  
    55   12   51 1  
    56   14   52 1  
    57   18   53 1  
    58   18   54 1  
    59   20   55 1  
    60   23   56 1  
    61   23   57 1  
    62   28   58 1  
    63   28   59 1  
    64   29   60 1  
    65   31   61 1  
    66   32   62 1  
    67   33   63 1  
    68   34   64 1  
    69   35   65 1  
    70   39   66 1  
    71   43   67 1  
    72   43   68 1  
@<TRIPOS>SUBSTRUCTURE
     1 SUB1        1 GROUP

