1lrt_ligand
  -I-interpret- 

 68 72  0  0  0  0  0  0  0  0999 V2000
  -34.9250   41.6780   40.7010 P   0  0  0  0  0
  -36.3190   41.5350   41.1820 O   0  0  0  0  0
  -34.3060   42.9820   41.1420 O   0  5  0  0  0
  -34.8450   41.5810   39.1080 O   0  0  0  0  0
  -35.3390   40.5030   38.3530 C   0  0  0  0  0
  -36.0310   41.0680   37.2010 C   0  0  0  0  0
  -37.4100   41.4050   37.1830 O   0  0  0  0  0
  -35.3150   42.3220   36.6510 C   0  0  0  0  0
  -34.8030   42.0880   35.3210 O   0  0  0  0  0
  -36.2940   43.4590   36.6320 C   0  0  0  0  0
  -36.0640   44.2970   35.5010 O   0  0  0  0  0
  -37.6530   42.7630   36.7890 C   0  0  0  0  0
  -38.5330   43.4040   37.6990 N   0  0  0  0  0
  -38.4150   43.5560   39.0560 C   0  0  0  0  0
  -39.4390   44.2100   39.5970 N   0  0  0  0  0
  -40.1880   44.4540   38.5450 C   0  0  0  0  0
  -41.4170   45.1320   38.5600 C   0  0  0  0  0
  -41.9460   45.5960   39.6800 N   0  0  0  0  0
  -42.0340   45.2810   37.3370 N   0  0  0  0  0
  -41.5050   44.8060   36.1600 C   0  0  0  0  0
  -40.3380   44.1620   36.1700 N   0  0  0  0  0
  -39.6470   43.9650   37.3380 C   0  0  0  0  0
  -33.9210   40.3910   41.1120 C   0  0  0  0  0
  -32.3340   39.9570   40.6910 P   0  0  0  0  0
  -31.6740   41.2750   40.7560 O   0  0  0  0  0
  -32.3880   39.2790   39.3640 O   0  5  0  0  0
  -31.7030   39.0350   41.8310 O   0  0  0  0  0
  -32.0620   37.6540   42.0860 C   0  0  0  0  0
  -31.2540   37.1190   43.2910 C   0  0  0  0  0
  -29.8600   36.7910   43.0510 O   0  0  0  0  0
  -31.3150   38.1750   44.3540 C   0  0  0  0  0
  -31.9730   37.6200   45.4930 O   0  0  0  0  0
  -29.9070   38.5370   44.7440 C   0  0  0  0  0
  -29.6280   38.5640   46.1220 O   0  0  0  0  0
  -29.0610   37.6230   43.9310 C   0  0  0  0  0
  -27.8840   38.1850   43.2030 C   0  0  0  0  0
  -27.0490   39.0400   43.7760 N   0  0  0  0  0
  -26.0760   39.3560   42.9080 C   0  0  0  0  0
  -26.1450   38.7530   41.7000 C   0  0  0  0  0
  -27.5120   37.7090   41.5970 S   0  0  0  0  0
  -25.0230   40.3240   43.3390 C   0  0  0  0  0
  -24.0840   40.6790   42.6310 O   0  0  0  0  0
  -25.2060   40.7730   44.5820 N   0  0  0  0  0
  -36.0382   39.9074   38.9583 H   0  0  0  0  0
  -34.5081   39.8646   38.0182 H   0  0  0  0  0
  -35.9306   40.2811   36.4390 H   0  0  0  0  0
  -34.4751   42.5764   37.3141 H   0  0  0  0  0
  -34.3688   42.8726   35.0075 H   0  0  0  0  0
  -36.1393   44.0899   37.5197 H   0  0  0  0  0
  -36.1657   43.7881   34.7053 H   0  0  0  0  0
  -38.1458   42.7590   35.8056 H   0  0  0  0  0
  -37.5742   43.1820   39.6290 H   0  0  0  0  0
  -42.8499   46.0894   39.6569 H   0  0  0  0  0
  -41.4541   45.4640   40.5753 H   0  0  0  0  0
  -42.0356   44.9549   35.2265 H   0  0  0  0  0
  -34.5081   39.5109   40.8108 H   0  0  0  0  0
  -33.8810   40.4469   42.2098 H   0  0  0  0  0
  -31.8366   37.0474   41.1965 H   0  0  0  0  0
  -33.1371   37.5911   42.3099 H   0  0  0  0  0
  -31.7512   36.2061   43.6508 H   0  0  0  0  0
  -31.8545   39.0615   43.9892 H   0  0  0  0  0
  -32.0219   38.2749   46.1794 H   0  0  0  0  0
  -29.7208   39.5624   44.3920 H   0  0  0  0  0
  -29.7893   37.7046   46.4935 H   0  0  0  0  0
  -28.6208   36.9375   44.6701 H   0  0  0  0  0
  -25.4315   38.9066   40.8985 H   0  0  0  0  0
  -24.5612   41.4272   44.9773 H   0  0  0  0  0
  -25.9879   40.4553   45.1183 H   0  0  0  0  0
  1  2  2  0  0  0
  1  3  1  0  0  0
  1  4  1  0  0  0
  1 23  1  0  0  0
  4  5  1  0  0  0
  5  6  1  0  0  0
  6  7  1  0  0  0
  6  8  1  0  0  0
  7 12  1  0  0  0
  8  9  1  0  0  0
  8 10  1  0  0  0
 10 11  1  0  0  0
 10 12  1  0  0  0
 12 13  1  0  0  0
 13 14  4  0  0  0
 13 22  4  0  0  0
 14 15  4  0  0  0
 15 16  4  0  0  0
 16 17  4  0  0  0
 16 22  4  0  0  0
 17 18  1  0  0  0
 17 19  4  0  0  0
 19 20  4  0  0  0
 20 21  4  0  0  0
 21 22  4  0  0  0
 23 24  1  0  0  0
 24 25  2  0  0  0
 24 26  1  0  0  0
 24 27  1  0  0  0
 27 28  1  0  0  0
 28 29  1  0  0  0
 29 30  1  0  0  0
 29 31  1  0  0  0
 30 35  1  0  0  0
 31 32  1  0  0  0
 31 33  1  0  0  0
 33 34  1  0  0  0
 33 35  1  0  0  0
 35 36  1  0  0  0
 36 37  4  0  0  0
 36 40  1  0  0  0
 37 38  4  0  0  0
 38 39  4  0  0  0
 38 41  1  0  0  0
 39 40  1  0  0  0
 41 42  2  0  0  0
 41 43  1  0  0  0
  5 44  1  0  0  0
  5 45  1  0  0  0
  6 46  1  0  0  0
  8 47  1  0  0  0
  9 48  1  0  0  0
 10 49  1  0  0  0
 11 50  1  0  0  0
 12 51  1  0  0  0
 14 52  1  0  0  0
 18 53  1  0  0  0
 18 54  1  0  0  0
 20 55  1  0  0  0
 23 56  1  0  0  0
 23 57  1  0  0  0
 28 58  1  0  0  0
 28 59  1  0  0  0
 29 60  1  0  0  0
 31 61  1  0  0  0
 32 62  1  0  0  0
 33 63  1  0  0  0
 34 64  1  0  0  0
 35 65  1  0  0  0
 39 66  1  0  0  0
 43 67  1  0  0  0
 43 68  1  0  0  0
M  END
$$$$
