### 
### Created by X-TOOL on Mon Oct 24 22:00:48 2005
### 

@<TRIPOS>MOLECULE
1ui0_ligand
   12    12     1     0     0
SMALL
GAST_HUCK


@<TRIPOS>ATOM
      1 N1         23.2440    9.8690   10.4930 N.am      1 SUB1       -0.203
      2 C2         22.3360    8.8680   10.1490 C.2       1 SUB1        0.328
      3 O2         21.9440    8.6400    9.0140 O.2       1 SUB1       -0.382
      4 N3         21.8890    8.1140   11.2030 N.am      1 SUB1       -0.187
      5 C4         22.2250    8.2260   12.5460 C.2       1 SUB1        0.182
      6 O4         21.8020    7.5230   13.4690 O.2       1 SUB1       -0.412
      7 C5         23.1750    9.2990   12.8060 C.2       1 SUB1        0.006
      8 C6         23.6430   10.0660   11.8030 C.2       1 SUB1        0.053
      9 H11        23.6156   10.4584    9.7757 H         1 SUB1        0.245
     10 H41        21.2373    7.3904   10.9757 H         1 SUB1        0.226
     11 H71        23.5113    9.4835   13.8252 H         1 SUB1        0.026
     12 H81        24.3527   10.8606   12.0285 H         1 SUB1        0.117
@<TRIPOS>BOND
     1    1    2 am 
     2    1    8 am 
     3    2    3 2  
     4    2    4 am 
     5    4    5 am 
     6    5    6 2  
     7    5    7 1  
     8    7    8 2  
     9    1    9 1  
    10    4   10 1  
    11    7   11 1  
    12    8   12 1  
@<TRIPOS>SUBSTRUCTURE
     1 SUB1        1 GROUP

