### 
### Created by X-TOOL on Mon Oct 24 23:09:06 2005
### 

@<TRIPOS>MOLECULE
1umw_ligand
  111   112     1     0     0
SMALL
GAST_HUCK


@<TRIPOS>ATOM
      1 N          16.3950   -7.5830    9.8010 N.am      1 SUB1       -0.353
      2 CA         15.5610   -7.7910    8.5860 C.3       1 SUB1        0.107
      3 C          16.4370   -8.0650    7.3710 C.2       1 SUB1        0.199
      4 O          17.5570   -7.5600    7.3010 O.2       1 SUB1       -0.395
      5 CB         14.8620   -6.4350    8.4000 C.3       1 SUB1       -0.016
      6 CG         15.2110   -5.6250    9.6170 C.3       1 SUB1       -0.034
      7 CD         16.5070   -6.1570   10.1420 C.3       1 SUB1        0.007
      8 N          15.9270   -8.8440    6.4230 N.am      1 SUB1       -0.264
      9 CA         16.6860   -9.1650    5.2240 C.3       1 SUB1        0.132
     10 C          16.3250   -8.2200    4.0840 C.2       1 SUB1        0.204
     11 O          16.7950   -8.3760    2.9570 O.2       1 SUB1       -0.394
     12 CB         16.4730  -10.6310    4.8320 C.3       1 SUB1       -0.003
     13 CG         17.1560  -11.6060    5.7850 C.3       1 SUB1       -0.002
     14 SD         18.9520  -11.3890    5.7770 S.3       1 SUB1       -0.164
     15 CE         19.4550  -12.4320    7.1290 C.3       1 SUB1       -0.018
     16 N          15.4900   -7.2330    4.3940 N.am      1 SUB1       -0.264
     17 CA         15.0750   -6.2330    3.4260 C.3       1 SUB1        0.133
     18 C          14.7910   -4.9330    4.1620 C.2       1 SUB1        0.204
     19 O          14.5730   -4.9420    5.3740 O.2       1 SUB1       -0.394
     20 CB         13.8240   -6.6860    2.6700 C.3       1 SUB1        0.004
     21 CG         12.6340   -7.0400    3.5590 C.3       1 SUB1        0.041
     22 CD         11.4230   -7.4850    2.7580 C.2       1 SUB1        0.174
     23 OE1        11.5300   -7.7400    1.5570 O.2       1 SUB1       -0.397
     24 NE2        10.2660   -7.5730    3.4170 N.am      1 SUB1       -0.301
     25 N          14.8050   -3.8220    3.4360 N.am      1 SUB1       -0.262
     26 CA         14.5060   -2.5230    4.0380 C.3       1 SUB1        0.154
     27 C          13.0040   -2.4130    4.3170 C.2       1 SUB1        0.206
     28 O          12.2600   -3.3820    4.1230 O.2       1 SUB1       -0.394
     29 CB         14.9520   -1.3920    3.1170 C.3       1 SUB1        0.084
     30 OG         14.2570   -1.4450    1.8840 O.3       1 SUB1       -0.390
     31 N          12.4670   -1.3020    4.8210 N.am      1 SUB1       -0.261
     32 CA         11.1150   -1.1710    5.3530 C.3       1 SUB1        0.161
     33 CB         11.0270    0.2720    5.8830 C.3       1 SUB1        0.114
     34 CG2         9.6140    0.5980    6.3400 C.3       1 SUB1       -0.030
     35 OG1        11.9120    0.4210    6.9900 O.3       1 SUB1       -0.315
     36 P          13.1820    1.3990    6.8550 P.3       1 SUB1        0.206
     37 O1P        13.9030    1.1640    8.2580 O.co2     1 SUB1       -0.535
     38 O2P        12.5480    2.8310    6.6330 O.co2     1 SUB1       -0.535
     39 O3P        14.0260    0.8660    5.6050 O.co2     1 SUB1       -0.535
     40 C          10.0530   -1.4240    4.3020 C.2       1 SUB1        0.209
     41 O          10.1320   -0.8410    3.1120 O.2       1 SUB1       -0.394
     42 N           9.1180   -2.3380    4.5530 N.am      1 SUB1       -0.250
     43 CA          8.0040   -2.7570    3.6510 C.3       1 SUB1        0.134
     44 C           7.0000   -1.6420    3.3870 C.2       1 SUB1        0.205
     45 O           6.8090   -0.7400    4.2070 O.2       1 SUB1       -0.394
     46 CB          7.3180   -3.8860    4.4320 C.3       1 SUB1       -0.010
     47 CG          8.3080   -4.3180    5.4640 C.3       1 SUB1       -0.028
     48 CD          9.1080   -3.0880    5.8200 C.3       1 SUB1        0.037
     49 N           6.3500   -1.7410    2.2350 N.am      1 SUB1       -0.268
     50 CA          5.3520   -0.7860    1.7820 C.3       1 SUB1        0.082
     51 C           4.1780   -0.6550    2.7570 C.2       1 SUB1        0.053
     52 O           3.9230   -1.5500    3.5720 O.co2     1 SUB1       -0.564
     53 CB          4.8550   -1.2180    0.4020 C.3       1 SUB1       -0.016
     54 CG          4.2200   -0.1710   -0.5050 C.3       1 SUB1       -0.042
     55 CD1         5.0060    1.1300   -0.4500 C.3       1 SUB1       -0.062
     56 CD2         4.1390   -0.7060   -1.9320 C.3       1 SUB1       -0.062
     57 O1          3.4608    0.3806    2.7285 O.co2     1 SUB1       -0.564
     58 H21        14.8440   -8.6105    8.7421 H         1 SUB1        0.074
     59 H51        15.2308   -5.9277    7.4964 H         1 SUB1        0.031
     60 H52        13.7733   -6.5661    8.3137 H         1 SUB1        0.031
     61 H61        14.4176   -5.7352   10.3709 H         1 SUB1        0.028
     62 H62        15.3094   -4.5603    9.3587 H         1 SUB1        0.028
     63 H71        16.5829   -6.0020   11.2283 H         1 SUB1        0.046
     64 H72        17.3740   -5.6864    9.6554 H         1 SUB1        0.046
     65 H11        16.8341   -8.3357   10.3311 H         1 SUB1        0.143
     66 H81        15.0056   -9.2160    6.5356 H         1 SUB1        0.188
     67 H91        17.7546   -9.0175    5.4393 H         1 SUB1        0.080
     68 H121       15.3949  -10.8494    4.8370 H         1 SUB1        0.032
     69 H122       16.8622  -10.7887    3.8154 H         1 SUB1        0.032
     70 H131       16.7900  -11.4325    6.8077 H         1 SUB1        0.038
     71 H132       16.9092  -12.6365    5.4899 H         1 SUB1        0.038
     72 H151       20.5490  -12.3822    7.2319 H         1 SUB1        0.034
     73 H152       18.9911  -12.0842    8.0638 H         1 SUB1        0.034
     74 H153       19.1393  -13.4687    6.9407 H         1 SUB1        0.034
     75 H161       15.1349   -7.1771    5.3272 H         1 SUB1        0.188
     76 H171       15.8892   -6.0585    2.7073 H         1 SUB1        0.080
     77 H201       13.5073   -5.8732    1.9999 H         1 SUB1        0.034
     78 H202       14.0834   -7.5657    2.0628 H         1 SUB1        0.034
     79 H211       12.9199   -7.8617    4.2320 H         1 SUB1        0.050
     80 H212       12.3650   -6.1623    4.1650 H         1 SUB1        0.050
     81 H241       10.2273   -7.3506    4.3912 H         1 SUB1        0.181
     82 H242        9.4377   -7.8614    2.9367 H         1 SUB1        0.181
     83 H251       15.0235   -3.8739    2.4615 H         1 SUB1        0.188
     84 H261       15.0390   -2.4382    4.9964 H         1 SUB1        0.082
     85 H291       14.7423   -0.4242    3.5958 H         1 SUB1        0.061
     86 H292       16.0341   -1.4712    2.9360 H         1 SUB1        0.061
     87 H301       14.5490   -0.7335    1.3263 H         1 SUB1        0.210
     88 H431        8.4157   -3.1179    2.6969 H         1 SUB1        0.080
     89 H461        6.4028   -3.5217    4.9216 H         1 SUB1        0.031
     90 H462        7.0552   -4.7196    3.7643 H         1 SUB1        0.031
     91 H471        8.9617   -5.0983    5.0471 H         1 SUB1        0.029
     92 H472        7.7980   -4.7198    6.3519 H         1 SUB1        0.029
     93 H481       10.1255   -3.3650    6.1329 H         1 SUB1        0.052
     94 H482        8.6332   -2.5118    6.6277 H         1 SUB1        0.052
     95 H491        6.5590   -2.5191    1.6427 H         1 SUB1        0.190
     96 H501        5.8219    0.2053    1.7026 H         1 SUB1        0.078
     97 H531        5.7157   -1.6276   -0.1469 H         1 SUB1        0.033
     98 H532        4.1167   -2.0192    0.5535 H         1 SUB1        0.033
     99 H541        3.1932    0.0232   -0.1618 H         1 SUB1        0.030
    100 H551        4.5244    1.8675   -1.1089 H         1 SUB1        0.023
    101 H552        5.0142    1.5201    0.5784 H         1 SUB1        0.023
    102 H553        6.0434    0.9555   -0.7715 H         1 SUB1        0.023
    103 H561        3.6832    0.0602   -2.5764 H         1 SUB1        0.023
    104 H562        5.1484   -0.9335   -2.3052 H         1 SUB1        0.023
    105 H563        3.5369   -1.6263   -1.9541 H         1 SUB1        0.023
    106 H311       13.0429   -0.4846    4.8358 H         1 SUB1        0.188
    107 H321       10.9589   -1.8906    6.1702 H         1 SUB1        0.083
    108 H331       11.3052    0.9742    5.0834 H         1 SUB1        0.069
    109 H341        9.5875    1.6331    6.7113 H         1 SUB1        0.026
    110 H342        8.9153    0.5024    5.4959 H         1 SUB1        0.026
    111 H343        9.3163   -0.0815    7.1521 H         1 SUB1        0.026
@<TRIPOS>BOND
     1    3    2 1  
     2    2    5 1  
     3    2    1 1  
     4    1    7 1  
     5    7    6 1  
     6    5    6 1  
     7    3    4 2  
     8    9    8 1  
     9    9   12 1  
    10   10    9 1  
    11   10   11 2  
    12   12   13 1  
    13   13   14 1  
    14   14   15 1  
    15    8    3 am 
    16   17   16 1  
    17   17   20 1  
    18   18   17 1  
    19   18   19 2  
    20   20   21 1  
    21   21   22 1  
    22   22   24 am 
    23   22   23 2  
    24   16   10 am 
    25   26   25 1  
    26   26   29 1  
    27   27   26 1  
    28   27   28 2  
    29   29   30 1  
    30   25   18 am 
    31   43   44 1  
    32   43   46 1  
    33   42   43 1  
    34   42   48 1  
    35   48   47 1  
    36   47   46 1  
    37   44   45 2  
    38   49   50 1  
    39   50   53 1  
    40   50   51 1  
    41   51   52 2  
    42   53   54 1  
    43   54   55 1  
    44   54   56 1  
    45   44   49 am 
    46   31   27 am 
    47   32   31 1  
    48   32   33 1  
    49   40   32 1  
    50   33   35 1  
    51   33   34 1  
    52   35   36 1  
    53   36   37 2  
    54   36   38 2  
    55   36   39 2  
    56   40   41 2  
    57   40   42 am 
    58   51   57 2  
    59    1   65 1  
    60    2   58 1  
    61    5   59 1  
    62    5   60 1  
    63    6   61 1  
    64    6   62 1  
    65    7   63 1  
    66    7   64 1  
    67    8   66 1  
    68    9   67 1  
    69   12   68 1  
    70   12   69 1  
    71   13   70 1  
    72   13   71 1  
    73   15   72 1  
    74   15   73 1  
    75   15   74 1  
    76   16   75 1  
    77   17   76 1  
    78   20   77 1  
    79   20   78 1  
    80   21   79 1  
    81   21   80 1  
    82   24   81 1  
    83   24   82 1  
    84   25   83 1  
    85   26   84 1  
    86   29   85 1  
    87   29   86 1  
    88   30   87 1  
    89   43   88 1  
    90   46   89 1  
    91   46   90 1  
    92   47   91 1  
    93   47   92 1  
    94   48   93 1  
    95   48   94 1  
    96   49   95 1  
    97   50   96 1  
    98   53   97 1  
    99   53   98 1  
   100   54   99 1  
   101   55  100 1  
   102   55  101 1  
   103   55  102 1  
   104   56  103 1  
   105   56  104 1  
   106   56  105 1  
   107   31  106 1  
   108   32  107 1  
   109   33  108 1  
   110   34  109 1  
   111   34  110 1  
   112   34  111 1  
@<TRIPOS>SUBSTRUCTURE
     1 SUB1        1 GROUP

