1umw_ligand
  -I-interpret- 

111112  0  0  0  0  0  0  0  0999 V2000
   16.3950   -7.5830    9.8010 N   0  0  0  0  0
   15.5610   -7.7910    8.5860 C   0  0  0  0  0
   16.4370   -8.0650    7.3710 C   0  0  0  0  0
   17.5570   -7.5600    7.3010 O   0  0  0  0  0
   14.8620   -6.4350    8.4000 C   0  0  0  0  0
   15.2110   -5.6250    9.6170 C   0  0  0  0  0
   16.5070   -6.1570   10.1420 C   0  0  0  0  0
   15.9270   -8.8440    6.4230 N   0  0  0  0  0
   16.6860   -9.1650    5.2240 C   0  0  0  0  0
   16.3250   -8.2200    4.0840 C   0  0  0  0  0
   16.7950   -8.3760    2.9570 O   0  0  0  0  0
   16.4730  -10.6310    4.8320 C   0  0  0  0  0
   17.1560  -11.6060    5.7850 C   0  0  0  0  0
   18.9520  -11.3890    5.7770 S   0  0  0  0  0
   19.4550  -12.4320    7.1290 C   0  0  0  0  0
   15.4900   -7.2330    4.3940 N   0  0  0  0  0
   15.0750   -6.2330    3.4260 C   0  0  0  0  0
   14.7910   -4.9330    4.1620 C   0  0  0  0  0
   14.5730   -4.9420    5.3740 O   0  0  0  0  0
   13.8240   -6.6860    2.6700 C   0  0  0  0  0
   12.6340   -7.0400    3.5590 C   0  0  0  0  0
   11.4230   -7.4850    2.7580 C   0  0  0  0  0
   11.5300   -7.7400    1.5570 O   0  0  0  0  0
   10.2660   -7.5730    3.4170 N   0  0  0  0  0
   14.8050   -3.8220    3.4360 N   0  0  0  0  0
   14.5060   -2.5230    4.0380 C   0  0  0  0  0
   13.0040   -2.4130    4.3170 C   0  0  0  0  0
   12.2600   -3.3820    4.1230 O   0  0  0  0  0
   14.9520   -1.3920    3.1170 C   0  0  0  0  0
   14.2570   -1.4450    1.8840 O   0  0  0  0  0
   12.4670   -1.3020    4.8210 N   0  0  0  0  0
   11.1150   -1.1710    5.3530 C   0  0  0  0  0
   11.0270    0.2720    5.8830 C   0  0  0  0  0
    9.6140    0.5980    6.3400 C   0  0  0  0  0
   11.9120    0.4210    6.9900 O   0  0  0  0  0
   13.1820    1.3990    6.8550 P   0  0  0  0  0
   13.9030    1.1640    8.2580 O   0  5  0  0  0
   12.5480    2.8310    6.6330 O   0  0  0  0  0
   14.0260    0.8660    5.6050 O   0  5  0  0  0
   10.0530   -1.4240    4.3020 C   0  0  0  0  0
   10.1320   -0.8410    3.1120 O   0  0  0  0  0
    9.1180   -2.3380    4.5530 N   0  0  0  0  0
    8.0040   -2.7570    3.6510 C   0  0  0  0  0
    7.0000   -1.6420    3.3870 C   0  0  0  0  0
    6.8090   -0.7400    4.2070 O   0  0  0  0  0
    7.3180   -3.8860    4.4320 C   0  0  0  0  0
    8.3080   -4.3180    5.4640 C   0  0  0  0  0
    9.1080   -3.0880    5.8200 C   0  0  0  0  0
    6.3500   -1.7410    2.2350 N   0  0  0  0  0
    5.3520   -0.7860    1.7820 C   0  0  0  0  0
    4.1780   -0.6550    2.7570 C   0  0  0  0  0
    3.9230   -1.5500    3.5720 O   0  0  0  0  0
    4.8550   -1.2180    0.4020 C   0  0  0  0  0
    4.2200   -0.1710   -0.5050 C   0  0  0  0  0
    5.0060    1.1300   -0.4500 C   0  0  0  0  0
    4.1390   -0.7060   -1.9320 C   0  0  0  0  0
    3.4608    0.3806    2.7285 O   0  5  0  0  0
   14.8440   -8.6105    8.7421 H   0  0  0  0  0
   15.2308   -5.9277    7.4964 H   0  0  0  0  0
   13.7733   -6.5661    8.3137 H   0  0  0  0  0
   14.4176   -5.7352   10.3709 H   0  0  0  0  0
   15.3094   -4.5603    9.3587 H   0  0  0  0  0
   16.5829   -6.0020   11.2283 H   0  0  0  0  0
   17.3740   -5.6864    9.6554 H   0  0  0  0  0
   16.8341   -8.3357   10.3311 H   0  0  0  0  0
   15.0056   -9.2160    6.5356 H   0  0  0  0  0
   17.7546   -9.0175    5.4393 H   0  0  0  0  0
   15.3949  -10.8494    4.8370 H   0  0  0  0  0
   16.8622  -10.7887    3.8154 H   0  0  0  0  0
   16.7900  -11.4325    6.8077 H   0  0  0  0  0
   16.9092  -12.6365    5.4899 H   0  0  0  0  0
   20.5490  -12.3822    7.2319 H   0  0  0  0  0
   18.9911  -12.0842    8.0638 H   0  0  0  0  0
   19.1393  -13.4687    6.9407 H   0  0  0  0  0
   15.1349   -7.1771    5.3272 H   0  0  0  0  0
   15.8892   -6.0585    2.7073 H   0  0  0  0  0
   13.5073   -5.8732    1.9999 H   0  0  0  0  0
   14.0834   -7.5657    2.0628 H   0  0  0  0  0
   12.9199   -7.8617    4.2320 H   0  0  0  0  0
   12.3650   -6.1623    4.1650 H   0  0  0  0  0
   10.2273   -7.3506    4.3912 H   0  0  0  0  0
    9.4377   -7.8614    2.9367 H   0  0  0  0  0
   15.0235   -3.8739    2.4615 H   0  0  0  0  0
   15.0390   -2.4382    4.9964 H   0  0  0  0  0
   14.7423   -0.4242    3.5958 H   0  0  0  0  0
   16.0341   -1.4712    2.9360 H   0  0  0  0  0
   14.5490   -0.7335    1.3263 H   0  0  0  0  0
    8.4157   -3.1179    2.6969 H   0  0  0  0  0
    6.4028   -3.5217    4.9216 H   0  0  0  0  0
    7.0552   -4.7196    3.7643 H   0  0  0  0  0
    8.9617   -5.0983    5.0471 H   0  0  0  0  0
    7.7980   -4.7198    6.3519 H   0  0  0  0  0
   10.1255   -3.3650    6.1329 H   0  0  0  0  0
    8.6332   -2.5118    6.6277 H   0  0  0  0  0
    6.5590   -2.5191    1.6427 H   0  0  0  0  0
    5.8219    0.2053    1.7026 H   0  0  0  0  0
    5.7157   -1.6276   -0.1469 H   0  0  0  0  0
    4.1167   -2.0192    0.5535 H   0  0  0  0  0
    3.1932    0.0232   -0.1618 H   0  0  0  0  0
    4.5244    1.8675   -1.1089 H   0  0  0  0  0
    5.0142    1.5201    0.5784 H   0  0  0  0  0
    6.0434    0.9555   -0.7715 H   0  0  0  0  0
    3.6832    0.0602   -2.5764 H   0  0  0  0  0
    5.1484   -0.9335   -2.3052 H   0  0  0  0  0
    3.5369   -1.6263   -1.9541 H   0  0  0  0  0
   13.0429   -0.4846    4.8358 H   0  0  0  0  0
   10.9589   -1.8906    6.1702 H   0  0  0  0  0
   11.3052    0.9742    5.0834 H   0  0  0  0  0
    9.5875    1.6331    6.7113 H   0  0  0  0  0
    8.9153    0.5024    5.4959 H   0  0  0  0  0
    9.3163   -0.0815    7.1521 H   0  0  0  0  0
  3  2  1  0  0  0
  2  5  1  0  0  0
  2  1  1  0  0  0
  1  7  1  0  0  0
  7  6  1  0  0  0
  5  6  1  0  0  0
  3  4  2  0  0  0
  9  8  1  0  0  0
  9 12  1  0  0  0
 10  9  1  0  0  0
 10 11  2  0  0  0
 12 13  1  0  0  0
 13 14  1  0  0  0
 14 15  1  0  0  0
  8  3  1  0  0  0
 17 16  1  0  0  0
 17 20  1  0  0  0
 18 17  1  0  0  0
 18 19  2  0  0  0
 20 21  1  0  0  0
 21 22  1  0  0  0
 22 24  1  0  0  0
 22 23  2  0  0  0
 16 10  1  0  0  0
 26 25  1  0  0  0
 26 29  1  0  0  0
 27 26  1  0  0  0
 27 28  2  0  0  0
 29 30  1  0  0  0
 25 18  1  0  0  0
 43 44  1  0  0  0
 43 46  1  0  0  0
 42 43  1  0  0  0
 42 48  1  0  0  0
 48 47  1  0  0  0
 47 46  1  0  0  0
 44 45  2  0  0  0
 49 50  1  0  0  0
 50 53  1  0  0  0
 50 51  1  0  0  0
 51 52  2  0  0  0
 53 54  1  0  0  0
 54 55  1  0  0  0
 54 56  1  0  0  0
 44 49  1  0  0  0
 31 27  1  0  0  0
 32 31  1  0  0  0
 32 33  1  0  0  0
 40 32  1  0  0  0
 33 35  1  0  0  0
 33 34  1  0  0  0
 35 36  1  0  0  0
 36 37  1  0  0  0
 36 38  2  0  0  0
 36 39  1  0  0  0
 40 41  2  0  0  0
 40 42  1  0  0  0
 51 57  1  0  0  0
  1 65  1  0  0  0
  2 58  1  0  0  0
  5 59  1  0  0  0
  5 60  1  0  0  0
  6 61  1  0  0  0
  6 62  1  0  0  0
  7 63  1  0  0  0
  7 64  1  0  0  0
  8 66  1  0  0  0
  9 67  1  0  0  0
 12 68  1  0  0  0
 12 69  1  0  0  0
 13 70  1  0  0  0
 13 71  1  0  0  0
 15 72  1  0  0  0
 15 73  1  0  0  0
 15 74  1  0  0  0
 16 75  1  0  0  0
 17 76  1  0  0  0
 20 77  1  0  0  0
 20 78  1  0  0  0
 21 79  1  0  0  0
 21 80  1  0  0  0
 24 81  1  0  0  0
 24 82  1  0  0  0
 25 83  1  0  0  0
 26 84  1  0  0  0
 29 85  1  0  0  0
 29 86  1  0  0  0
 30 87  1  0  0  0
 43 88  1  0  0  0
 46 89  1  0  0  0
 46 90  1  0  0  0
 47 91  1  0  0  0
 47 92  1  0  0  0
 48 93  1  0  0  0
 48 94  1  0  0  0
 49 95  1  0  0  0
 50 96  1  0  0  0
 53 97  1  0  0  0
 53 98  1  0  0  0
 54 99  1  0  0  0
 55100  1  0  0  0
 55101  1  0  0  0
 55102  1  0  0  0
 56103  1  0  0  0
 56104  1  0  0  0
 56105  1  0  0  0
 31106  1  0  0  0
 32107  1  0  0  0
 33108  1  0  0  0
 34109  1  0  0  0
 34110  1  0  0  0
 34111  1  0  0  0
M  END
$$$$
