1q66_ligand
  -I-interpret- 

 39 41  0  0  0  0  0  0  0  0999 V2000
   19.2550   17.8470   17.4810 C   0  0  0  0  0
   19.0780   19.4040   17.2740 N   0  3  0  0  0
   18.3020   17.5100   18.6160 C   0  0  0  0  0
   16.9980   17.0170   18.3200 C   0  0  0  0  0
   16.0950   16.7000   19.3720 C   0  0  0  0  0
   16.4940   16.8800   20.7290 C   0  0  0  0  0
   15.6510   16.5910   21.7690 N   0  0  0  0  0
   15.9740   16.7410   23.0140 C   0  0  0  0  0
   15.1410   16.4560   23.9720 N   0  0  0  0  0
   17.1700   17.1930   23.3860 N   0  0  0  0  0
   18.1220   17.5250   22.5120 C   0  0  0  0  0
   19.2130   17.9370   22.8710 O   0  0  0  0  0
   17.8090   17.3760   21.0200 C   0  0  0  0  0
   18.7170   17.6910   19.9680 C   0  0  0  0  0
   14.7080   16.1680   19.0400 C   0  0  0  0  0
   13.5890   17.5870   18.7890 S   0  0  0  0  0
   12.0330   16.7370   18.5970 C   0  0  0  0  0
   11.9860   15.4150   18.0460 C   0  0  0  0  0
   10.7420   14.7420   17.8980 C   0  0  0  0  0
    9.5400   15.3860   18.2950 C   0  0  0  0  0
    9.5790   16.7020   18.8410 C   0  0  0  0  0
   10.8240   17.3750   18.9920 C   0  0  0  0  0
   20.2919   17.6058   17.7579 H   0  0  0  0  0
   18.9824   17.2986   16.5672 H   0  0  0  0  0
   19.6822   19.7148   16.5294 H   0  0  0  0  0
   19.3195   19.8858   18.1258 H   0  0  0  0  0
   18.1195   19.6044   17.0347 H   0  0  0  0  0
   16.6931   16.8830   17.2884 H   0  0  0  0  0
   14.2000   16.1021   23.7480 H   0  0  0  0  0
   15.4225   16.5843   24.9544 H   0  0  0  0  0
   17.3631   17.2877   24.3626 H   0  0  0  0  0
   19.7100   18.0633   20.1926 H   0  0  0  0  0
   14.3399   15.5475   19.8704 H   0  0  0  0  0
   14.7523   15.5635   18.1221 H   0  0  0  0  0
   12.9036   14.9254   17.7404 H   0  0  0  0  0
   10.7113   13.7408   17.4836 H   0  0  0  0  0
    8.5905   14.8753   18.1825 H   0  0  0  0  0
    8.6594   17.1909   19.1416 H   0  0  0  0  0
   10.8512   18.3754   19.4087 H   0  0  0  0  0
  1  2  1  0  0  0
  1  3  1  0  0  0
  3  4  4  0  0  0
  3 14  4  0  0  0
  4  5  4  0  0  0
  5  6  4  0  0  0
  5 15  1  0  0  0
  6  7  1  0  0  0
  6 13  4  0  0  0
  7  8  2  0  0  0
  8  9  1  0  0  0
  8 10  1  0  0  0
 10 11  1  0  0  0
 11 12  2  0  0  0
 11 13  1  0  0  0
 13 14  4  0  0  0
 15 16  1  0  0  0
 16 17  1  0  0  0
 17 18  4  0  0  0
 17 22  4  0  0  0
 18 19  4  0  0  0
 19 20  4  0  0  0
 20 21  4  0  0  0
 21 22  4  0  0  0
  1 23  1  0  0  0
  1 24  1  0  0  0
  2 25  1  0  0  0
  2 26  1  0  0  0
  2 27  1  0  0  0
  4 28  1  0  0  0
  9 29  1  0  0  0
  9 30  1  0  0  0
 10 31  1  0  0  0
 14 32  1  0  0  0
 15 33  1  0  0  0
 15 34  1  0  0  0
 18 35  1  0  0  0
 19 36  1  0  0  0
 20 37  1  0  0  0
 21 38  1  0  0  0
 22 39  1  0  0  0
M  END
$$$$
