### 
### Created by X-TOOL on Mon Oct 24 22:43:54 2005
### 

@<TRIPOS>MOLECULE
1lf2_ligand
   80    82     1     0     0
SMALL
GAST_HUCK


@<TRIPOS>ATOM
      1 C          34.1440   28.6370    9.3600 C.ar      1 SUB1       -0.023
      2 C8         34.4550   29.8420    9.9500 C.ar      1 SUB1        0.097
      3 C9         35.7770   30.3190    9.8970 C.ar      1 SUB1       -0.023
      4 C10        36.7600   29.5670    9.2490 C.ar      1 SUB1       -0.076
      5 C13        36.4420   28.3600    8.6640 C.ar      1 SUB1       -0.086
      6 C14        35.1420   27.8940    8.7150 C.ar      1 SUB1       -0.076
      7 C3         36.1130   31.6830   10.4710 C.3       1 SUB1       -0.035
      8 C2         32.7130   28.1320    9.4040 C.3       1 SUB1       -0.035
      9 C16        30.5510   37.7260   14.5130 C.ar      1 SUB1        0.036
     10 C26        30.8790   37.9050   15.8680 C.ar      1 SUB1       -0.054
     11 C27        30.2110   38.8700   16.6540 C.ar      1 SUB1       -0.038
     12 C28        29.2110   39.6630   16.0890 C.ar      1 SUB1        0.041
     13 C29        28.8810   39.4870   14.7410 C.ar      1 SUB1       -0.038
     14 N1         28.5020   40.7120   16.9060 N.pl3     1 SUB1       -0.334
     15 C30        29.5450   38.5360   13.9670 C.ar      1 SUB1       -0.054
     16 O1         33.3890   30.5060   10.5520 O.3       1 SUB1       -0.305
     17 C34        32.6180   31.4240    9.8390 C.3       1 SUB1        0.156
     18 C25        31.8510   32.3740   10.7840 C.2       1 SUB1        0.207
     19 O26        31.3740   33.4380   10.3640 O.2       1 SUB1       -0.394
     20 N16        31.7520   31.9970   12.0620 N.am      1 SUB1       -0.277
     21 C15        31.4780   32.7950   14.4050 C.3       1 SUB1        0.082
     22 O14        31.7720   31.5180   14.9670 O.3       1 SUB1       -0.389
     23 C12        32.8010   33.4970   14.2870 C.3       1 SUB1       -0.002
     24 C4         32.8490   34.9690   13.9220 C.3       1 SUB1        0.044
     25 C5         34.0810   35.7040   14.4990 C.3       1 SUB1       -0.027
     26 C6         35.4800   35.0900   14.3640 C.3       1 SUB1       -0.045
     27 C11        35.7850   34.9700   12.8550 C.3       1 SUB1       -0.063
     28 C7         36.4740   36.0300   14.9950 C.3       1 SUB1       -0.063
     29 N3         31.6080   35.6450   14.3040 N.am      1 SUB1       -0.285
     30 C1         31.2080   36.7690   13.7090 C.2       1 SUB1        0.195
     31 O2         31.3480   36.9550   12.4870 O.2       1 SUB1       -0.391
     32 C17        30.8170   32.5980   12.9980 C.3       1 SUB1        0.077
     33 C18        29.5810   31.6840   13.1110 C.3       1 SUB1        0.006
     34 C19        28.9220   31.3680   11.7820 C.ar      1 SUB1       -0.041
     35 C20        28.1970   32.3300   11.1050 C.ar      1 SUB1       -0.060
     36 C21        27.5980   32.0270    9.8720 C.ar      1 SUB1       -0.069
     37 C22        27.7320   30.7570    9.3070 C.ar      1 SUB1       -0.069
     38 C23        28.4590   29.7790    9.9750 C.ar      1 SUB1       -0.069
     39 C24        29.0460   30.0930   11.2140 C.ar      1 SUB1       -0.060
     40 H41        37.7788   29.9348    9.2060 H         1 SUB1        0.047
     41 H51        37.2091   27.7783    8.1657 H         1 SUB1        0.049
     42 H61        34.8922   26.9461    8.2523 H         1 SUB1        0.047
     43 H71        35.2158   32.1155   10.9379 H         1 SUB1        0.037
     44 H72        36.4616   32.3446    9.6643 H         1 SUB1        0.037
     45 H73        36.9051   31.5777   11.2270 H         1 SUB1        0.037
     46 H81        32.6502   27.1628    8.8875 H         1 SUB1        0.037
     47 H82        32.0529   28.8568    8.9051 H         1 SUB1        0.037
     48 H83        32.3991   28.0104   10.4512 H         1 SUB1        0.037
     49 H101       31.6548   37.2945   16.3157 H         1 SUB1        0.064
     50 H111       30.4755   38.9949   17.6978 H         1 SUB1        0.053
     51 H131       28.1026   40.0950   14.2944 H         1 SUB1        0.053
     52 H141       28.7442   40.8424   17.8986 H         1 SUB1        0.174
     53 H142       27.7752   41.2986   16.4719 H         1 SUB1        0.174
     54 H151       29.2783   38.4206   12.9227 H         1 SUB1        0.064
     55 H171       31.8939   30.8764    9.2179 H         1 SUB1        0.085
     56 H172       33.2789   32.0200    9.1925 H         1 SUB1        0.085
     57 H201       32.3502   31.2660   12.3902 H         1 SUB1        0.186
     58 H211       30.7988   33.3627   15.0580 H         1 SUB1        0.062
     59 H221       30.9667   31.0239   15.0662 H         1 SUB1        0.210
     60 H231       33.3778   32.9606   13.5192 H         1 SUB1        0.031
     61 H232       33.3027   33.3948   15.2606 H         1 SUB1        0.031
     62 H241       32.9286   35.0240   12.8263 H         1 SUB1        0.056
     63 H251       33.8957   35.8354   15.5753 H         1 SUB1        0.029
     64 H252       34.1193   36.6889   14.0106 H         1 SUB1        0.029
     65 H261       35.5226   34.1034   14.8485 H         1 SUB1        0.030
     66 H271       36.7844   34.5318   12.7167 H         1 SUB1        0.023
     67 H272       35.7555   35.9685   12.3944 H         1 SUB1        0.023
     68 H273       35.0324   34.3242   12.3790 H         1 SUB1        0.023
     69 H281       36.2620   36.1198   16.0706 H         1 SUB1        0.023
     70 H282       36.3942   37.0198   14.5217 H         1 SUB1        0.023
     71 H283       37.4915   35.6368   14.8535 H         1 SUB1        0.023
     72 H291       31.0447   35.2529   15.0313 H         1 SUB1        0.184
     73 H321       30.5062   33.5807   12.6138 H         1 SUB1        0.060
     74 H331       28.8405   32.1820   13.7541 H         1 SUB1        0.045
     75 H332       29.8927   30.7371   13.5759 H         1 SUB1        0.045
     76 H351       28.0903   33.3225   11.5276 H         1 SUB1        0.056
     77 H361       27.0253   32.7871    9.3530 H         1 SUB1        0.060
     78 H371       27.2709   30.5350    8.3514 H         1 SUB1        0.056
     79 H381       28.5720   28.7892    9.5477 H         1 SUB1        0.060
     80 H391       29.6075   29.3308   11.7419 H         1 SUB1        0.056
@<TRIPOS>BOND
     1    1    8 1  
     2    1    6 ar 
     3    1    2 ar 
     4    2   16 1  
     5    2    3 ar 
     6    3    7 1  
     7    3    4 ar 
     8    4    5 ar 
     9    5    6 ar 
    10   16   17 1  
    11   17   18 1  
    12   18   20 am 
    13   18   19 2  
    14   20   32 1  
    15   32   33 1  
    16   32   21 1  
    17   21   23 1  
    18   21   22 1  
    19   23   24 1  
    20   24   29 1  
    21   24   25 1  
    22   25   26 1  
    23   26   28 1  
    24   26   27 1  
    25   29   30 am 
    26   30   31 2  
    27   30    9 1  
    28    9   15 ar 
    29    9   10 ar 
    30   10   11 ar 
    31   11   12 ar 
    32   12   14 1  
    33   12   13 ar 
    34   13   15 ar 
    35   33   34 1  
    36   34   39 ar 
    37   34   35 ar 
    38   35   36 ar 
    39   36   37 ar 
    40   37   38 ar 
    41   38   39 ar 
    42    4   40 1  
    43    5   41 1  
    44    6   42 1  
    45    7   43 1  
    46    7   44 1  
    47    7   45 1  
    48    8   46 1  
    49    8   47 1  
    50    8   48 1  
    51   10   49 1  
    52   11   50 1  
    53   13   51 1  
    54   14   52 1  
    55   14   53 1  
    56   15   54 1  
    57   17   55 1  
    58   17   56 1  
    59   20   57 1  
    60   21   58 1  
    61   22   59 1  
    62   23   60 1  
    63   23   61 1  
    64   24   62 1  
    65   25   63 1  
    66   25   64 1  
    67   26   65 1  
    68   27   66 1  
    69   27   67 1  
    70   27   68 1  
    71   28   69 1  
    72   28   70 1  
    73   28   71 1  
    74   29   72 1  
    75   32   73 1  
    76   33   74 1  
    77   33   75 1  
    78   35   76 1  
    79   36   77 1  
    80   37   78 1  
    81   38   79 1  
    82   39   80 1  
@<TRIPOS>SUBSTRUCTURE
     1 SUB1        1 GROUP

