1pme_ligand
  -I-interpret- 

 43 46  0  0  0  0  0  0  0  0999 V2000
  -14.2147   14.3658   42.1839 H   0  0  0  0  0
  -16.6809   14.3061   41.2349 H   0  0  0  0  0
  -15.2154   10.4171   40.2308 H   0  0  0  0  0
  -17.4274    9.5398   40.7739 H   0  0  0  0  0
  -18.8539   13.2888   41.7355 H   0  0  0  0  0
  -15.4902   10.9935   35.6423 H   0  0  0  0  0
  -11.8069    9.3193   36.9767 H   0  0  0  0  0
  -11.7367   10.9398   38.8076 H   0  0  0  0  0
  -15.4130   12.6190   37.4852 H   0  0  0  0  0
  -10.6358   15.7987   40.0766 H   0  0  0  0  0
  -13.7810   13.9180   41.3640 N   0  0  0  0  0
  -12.5420   14.0610   40.9510 C   0  0  0  0  0
  -12.3530   13.5720   39.7460 N   0  0  0  0  0
  -13.5270   12.7880   39.4470 C   0  0  0  0  0
  -14.4120   13.0090   40.4400 C   0  0  0  0  0
  -16.8120   13.2360   41.1220 C   0  0  0  0  0
  -15.7510   12.4420   40.6940 C   0  0  0  0  0
  -15.9960   11.0900   40.5670 C   0  0  0  0  0
  -17.2620   10.6060   40.8780 C   0  0  0  0  0
  -18.2890   11.3480   41.2940 N   0  0  0  0  0
  -18.0460   12.6460   41.4050 C   0  0  0  0  0
  -14.6710   10.9760   36.3520 C   0  0  0  0  0
  -13.6740   10.0510   36.2350 C   0  0  0  0  0
  -12.6080   10.0390   37.1000 C   0  0  0  0  0
  -12.5730   10.9480   38.1180 C   0  0  0  0  0
  -13.5780   11.8760   38.2880 C   0  0  0  0  0
  -14.6220   11.8850   37.3820 C   0  0  0  0  0
  -11.4170   14.6840   41.7310 C   0  0  0  0  0
  -10.5340   15.5730   41.1320 C   0  0  0  0  0
   -9.5200   16.1780   41.8690 C   0  0  0  0  0
   -9.3690   15.9000   43.2120 C   0  0  0  0  0
  -10.2160   14.9850   43.7800 C   0  0  0  0  0
  -11.2350   14.3990   43.0680 C   0  0  0  0  0
   -8.2360   16.7430   44.1980 S   0  0  0  0  0
   -8.3020   18.2160   43.9820 O   0  0  0  0  0
   -7.1180   16.0940   45.3480 C   0  0  0  0  0
   -8.8438   16.8728   41.3842 H   0  0  0  0  0
  -10.0784   14.7155   44.8209 H   0  0  0  0  0
  -11.9038   13.7044   43.5633 H   0  0  0  0  0
   -6.5421   16.9137   45.8024 H   0  0  0  0  0
   -6.4311   15.4007   44.8406 H   0  0  0  0  0
  -13.8960    9.0150   35.4600 F   0  0  0  0  0
   -7.6699   15.5551   46.1322 H   0  0  0  0  0
 23 42  1  0  0  0
 11  1  1  0  0  0
 16  2  1  0  0  0
 18  3  1  0  0  0
 19  4  1  0  0  0
 21  5  1  0  0  0
 22  6  1  0  0  0
 24  7  1  0  0  0
 25  8  1  0  0  0
 15 11  1  0  0  0
 11 12  1  0  0  0
 12 28  1  0  0  0
 13 12  2  0  0  0
 14 13  1  0  0  0
 26 14  1  0  0  0
 14 15  2  0  0  0
 15 17  1  0  0  0
 17 16  4  0  0  0
 17 18  4  0  0  0
 18 19  4  0  0  0
 19 20  4  0  0  0
 21 20  4  0  0  0
 16 21  4  0  0  0
 26 27  4  0  0  0
 25 26  4  0  0  0
 24 25  4  0  0  0
 23 24  4  0  0  0
 23 22  4  0  0  0
 22 27  4  0  0  0
 28 33  4  0  0  0
 28 29  4  0  0  0
 29 30  4  0  0  0
 30 31  4  0  0  0
 31 34  1  0  0  0
 31 32  4  0  0  0
 32 33  4  0  0  0
 34 36  1  0  0  0
 34 35  2  0  0  0
 27  9  1  0  0  0
 29 10  1  0  0  0
 30 37  1  0  0  0
 32 38  1  0  0  0
 33 39  1  0  0  0
 36 40  1  0  0  0
 36 41  1  0  0  0
 36 43  1  0  0  0
M  END
$$$$
