### 
### Created by X-TOOL on Mon Oct 24 23:51:31 2005
### 

@<TRIPOS>MOLECULE
1pme_ligand
   43    46     1     0     0
SMALL
GAST_HUCK


@<TRIPOS>ATOM
      1 H111      -14.2147   14.3658   42.1839 H         1 SUB1        0.237
      2 H161      -16.6809   14.3061   41.2349 H         1 SUB1        0.069
      3 H181      -15.2154   10.4171   40.2308 H         1 SUB1        0.069
      4 H191      -17.4274    9.5398   40.7739 H         1 SUB1        0.081
      5 H211      -18.8539   13.2888   41.7355 H         1 SUB1        0.081
      6 H221      -15.4902   10.9935   35.6423 H         1 SUB1        0.060
      7 H241      -11.8069    9.3193   36.9767 H         1 SUB1        0.060
      8 H251      -11.7367   10.9398   38.8076 H         1 SUB1        0.059
      9 H271      -15.4130   12.6190   37.4852 H         1 SUB1        0.059
     10 H291      -10.6358   15.7987   40.0766 H         1 SUB1        0.065
     11 N2        -13.7810   13.9180   41.3640 N.pl3     1 SUB1       -0.249
     12 C2        -12.5420   14.0610   40.9510 C.2       1 SUB1        0.142
     13 N1        -12.3530   13.5720   39.7460 N.2       1 SUB1       -0.304
     14 C4        -13.5270   12.7880   39.4470 C.2       1 SUB1        0.043
     15 C5        -14.4120   13.0090   40.4400 C.2       1 SUB1        0.101
     16 C14       -16.8120   13.2360   41.1220 C.ar      1 SUB1       -0.029
     17 C7        -15.7510   12.4420   40.6940 C.ar      1 SUB1        0.023
     18 C16       -15.9960   11.0900   40.5670 C.ar      1 SUB1       -0.029
     19 C10       -17.2620   10.6060   40.8780 C.ar      1 SUB1        0.006
     20 N5        -18.2890   11.3480   41.2940 N.ar      1 SUB1       -0.304
     21 C18       -18.0460   12.6460   41.4050 C.ar      1 SUB1        0.006
     22 C15       -14.6710   10.9760   36.3520 C.ar      1 SUB1       -0.030
     23 C8        -13.6740   10.0510   36.2350 C.ar      1 SUB1        0.130
     24 C17       -12.6080   10.0390   37.1000 C.ar      1 SUB1       -0.030
     25 C11       -12.5730   10.9480   38.1180 C.ar      1 SUB1       -0.059
     26 C13       -13.5780   11.8760   38.2880 C.ar      1 SUB1       -0.023
     27 C19       -14.6220   11.8850   37.3820 C.ar      1 SUB1       -0.059
     28 C1        -11.4170   14.6840   41.7310 C.ar      1 SUB1        0.030
     29 C9        -10.5340   15.5730   41.1320 C.ar      1 SUB1       -0.046
     30 C3         -9.5200   16.1780   41.8690 C.ar      1 SUB1       -0.043
     31 C12        -9.3690   15.9000   43.2120 C.ar      1 SUB1        0.040
     32 C20       -10.2160   14.9850   43.7800 C.ar      1 SUB1       -0.043
     33 C6        -11.2350   14.3990   43.0680 C.ar      1 SUB1       -0.046
     34 S1         -8.2360   16.7430   44.1980 S.o       1 SUB1        0.052
     35 O1         -8.3020   18.2160   43.9820 O.2       1 SUB1       -0.252
     36 C21        -7.1180   16.0940   45.3480 C.3       1 SUB1        0.016
     37 H301       -8.8438   16.8728   41.3842 H         1 SUB1        0.063
     38 H321      -10.0784   14.7155   44.8209 H         1 SUB1        0.063
     39 H331      -11.9038   13.7044   43.5633 H         1 SUB1        0.065
     40 H361       -6.5421   16.9137   45.8024 H         1 SUB1        0.037
     41 H362       -6.4311   15.4007   44.8406 H         1 SUB1        0.037
     42 F1        -13.8960    9.0150   35.4600 F         1 SUB1       -0.185
     43 H363       -7.6699   15.5551   46.1322 H         1 SUB1        0.037
@<TRIPOS>BOND
     1   23   42 1  
     2   11    1 1  
     3   16    2 1  
     4   18    3 1  
     5   19    4 1  
     6   21    5 1  
     7   22    6 1  
     8   24    7 1  
     9   25    8 1  
    10   15   11 1  
    11   11   12 1  
    12   12   28 1  
    13   13   12 2  
    14   14   13 1  
    15   26   14 1  
    16   14   15 2  
    17   15   17 1  
    18   17   16 ar 
    19   17   18 ar 
    20   18   19 ar 
    21   19   20 ar 
    22   21   20 ar 
    23   16   21 ar 
    24   26   27 ar 
    25   25   26 ar 
    26   24   25 ar 
    27   23   24 ar 
    28   23   22 ar 
    29   22   27 ar 
    30   28   33 ar 
    31   28   29 ar 
    32   29   30 ar 
    33   30   31 ar 
    34   31   34 1  
    35   31   32 ar 
    36   32   33 ar 
    37   34   36 1  
    38   34   35 2  
    39   27    9 1  
    40   29   10 1  
    41   30   37 1  
    42   32   38 1  
    43   33   39 1  
    44   36   40 1  
    45   36   41 1  
    46   36   43 1  
@<TRIPOS>SUBSTRUCTURE
     1 SUB1        1 GROUP

