1p28_ligand
  -I-interpret- 

 14 13  0  0  0  0  0  0  0  0999 V2000
   11.0500    0.5970    3.2040 C   0  0  0  0  0
   10.7400    1.2830    1.8750 C   0  0  0  0  0
    9.8280    2.3420    2.1570 O   0  0  0  0  0
   10.1720    0.3310    0.8340 C   0  0  0  0  0
    8.8460   -0.3240    1.0680 C   0  0  0  0  0
   10.7870    0.1150   -0.2160 O   0  0  0  0  0
   11.7538   -0.2311    3.0338 H   0  0  0  0  0
   10.1196    0.2037    3.6395 H   0  0  0  0  0
   11.5000    1.3242    3.8959 H   0  0  0  0  0
   11.6709    1.7081    1.4717 H   0  0  0  0  0
    9.6106    2.7944    1.3504 H   0  0  0  0  0
    8.6016   -0.9726    0.2138 H   0  0  0  0  0
    8.0697    0.4478    1.1761 H   0  0  0  0  0
    8.8925   -0.9285    1.9858 H   0  0  0  0  0
  1  2  1  0  0  0
  2  3  1  0  0  0
  2  4  1  0  0  0
  4  5  1  0  0  0
  4  6  2  0  0  0
  1  7  1  0  0  0
  1  8  1  0  0  0
  1  9  1  0  0  0
  2 10  1  0  0  0
  3 11  1  0  0  0
  5 12  1  0  0  0
  5 13  1  0  0  0
  5 14  1  0  0  0
M  END
$$$$
