### 
### Created by X-TOOL on Mon Oct 24 22:41:52 2005
### 

@<TRIPOS>MOLECULE
1hi4_ligand
   38    40     1     0     0
SMALL
GAST_HUCK


@<TRIPOS>ATOM
      1 P1         10.0960   17.7550   12.3850 P.3       1 SUB1        0.206
      2 O1P        10.5140   16.3440   12.6620 O.co2     1 SUB1       -0.535
      3 O2P         9.4380   17.9850   11.0560 O.co2     1 SUB1       -0.535
      4 O3P         9.7920   18.6320   13.5340 O.co2     1 SUB1       -0.535
      5 P2         14.4390   14.6320    9.6390 P.3       1 SUB1        0.205
      6 O4P        15.6900   13.9260   10.0510 O.co2     1 SUB1       -0.535
      7 O5P        13.2800   13.7430    9.3380 O.co2     1 SUB1       -0.535
      8 O6P        14.5180   15.9220    8.9550 O.co2     1 SUB1       -0.535
      9 O5         13.9260   15.1580   11.1170 O.3       1 SUB1       -0.320
     10 C5         14.6380   16.0680   11.9950 C.3       1 SUB1        0.095
     11 C4         13.7740   17.3130   12.3940 C.3       1 SUB1        0.121
     12 O4         14.7050   18.4580   12.4880 O.3       1 SUB1       -0.344
     13 C3         12.6980   17.7600   11.3500 C.3       1 SUB1        0.135
     14 O3         11.5320   18.3890   12.0040 O.3       1 SUB1       -0.314
     15 C2         13.4860   18.7190   10.4930 C.3       1 SUB1        0.134
     16 O2         12.7340   19.5170    9.5820 O.3       1 SUB1       -0.384
     17 C1         14.2460   19.5000   11.5870 C.3       1 SUB1        0.172
     18 N9         15.3870   20.3150   11.0430 N.ar      1 SUB1       -0.260
     19 C8         15.5640   20.8240    9.7590 C.ar      1 SUB1        0.142
     20 N7         16.6740   21.5130    9.5740 N.ar      1 SUB1       -0.172
     21 C5         17.3000   21.4780   10.8110 C.ar      1 SUB1        0.238
     22 C6         18.5420   22.0350   11.2950 C.ar      1 SUB1        0.257
     23 N6         19.3540   22.7430   10.5240 N.pl3     1 SUB1       -0.255
     24 N1         18.8970   21.8150   12.6350 N.ar      1 SUB1       -0.126
     25 C2         18.0650   21.0780   13.4610 C.ar      1 SUB1        0.199
     26 N3         16.8540   20.4930   13.1120 N.ar      1 SUB1       -0.126
     27 C4         16.5270   20.7350   11.7620 C.ar      1 SUB1        0.229
     28 H101       15.5450   16.4180   11.4804 H         1 SUB1        0.064
     29 H102       14.9211   15.5269   12.9099 H         1 SUB1        0.064
     30 H111       13.2851   17.1154   13.3594 H         1 SUB1        0.065
     31 H131       12.3487   16.9042   10.7537 H         1 SUB1        0.070
     32 H151       14.2052   18.1517    9.8840 H         1 SUB1        0.067
     33 H161       13.3237   20.0812    9.0956 H         1 SUB1        0.210
     34 H171       13.5567   20.1782   12.1112 H         1 SUB1        0.088
     35 H191       14.8408   20.6654    8.9672 H         1 SUB1        0.118
     36 H231       20.2305   23.1220   10.9102 H         1 SUB1        0.235
     37 H232       19.1089   22.9145    9.5384 H         1 SUB1        0.235
     38 H251       18.3923   20.9436   14.4856 H         1 SUB1        0.164
@<TRIPOS>BOND
     1    1    2 2  
     2    1    3 2  
     3    1    4 2  
     4   14    1 1  
     5    5    6 2  
     6    5    7 2  
     7    5    8 2  
     8    9    5 1  
     9   10    9 1  
    10   11   10 1  
    11   11   12 1  
    12   13   11 1  
    13   12   17 1  
    14   13   14 1  
    15   13   15 1  
    16   15   16 1  
    17   15   17 1  
    18   17   18 1  
    19   18   19 ar 
    20   18   27 ar 
    21   19   20 ar 
    22   20   21 ar 
    23   21   22 ar 
    24   21   27 ar 
    25   22   23 1  
    26   22   24 ar 
    27   24   25 ar 
    28   25   26 ar 
    29   26   27 ar 
    30   10   28 1  
    31   10   29 1  
    32   11   30 1  
    33   13   31 1  
    34   15   32 1  
    35   16   33 1  
    36   17   34 1  
    37   19   35 1  
    38   23   36 1  
    39   23   37 1  
    40   25   38 1  
@<TRIPOS>SUBSTRUCTURE
     1 SUB1        1 GROUP

