### 
### Created by X-TOOL on Mon Oct 24 22:05:36 2005
### 

@<TRIPOS>MOLECULE
1nf8_ligand
   24    24     1     0     0
SMALL
GAST_HUCK


@<TRIPOS>ATOM
      1 C1          6.0430   20.8580   75.2370 C.2       1 SUB1       -0.005
      2 C2          5.8600   21.4630   73.8410 C.3       1 SUB1        0.128
      3 O3          4.6730   22.1250   73.7890 O.3       1 SUB1       -0.374
      4 C3          6.2820   20.7470   72.7800 C.3       1 SUB1        0.147
      5 C4          6.1200   19.2830   72.8920 C.2       1 SUB1       -0.034
      6 C5          6.0980   18.6590   74.1370 C.2       1 SUB1       -0.069
      7 C6          6.1280   19.3940   75.3370 C.2       1 SUB1       -0.068
      8 C           6.0480   21.6670   76.5190 C.2       1 SUB1        0.045
      9 O2          5.8480   22.8860   76.3170 O.co2     1 SUB1       -0.567
     10 O1          6.2470   21.2140   77.6550 O.co2     1 SUB1       -0.567
     11 C1'         7.7890   20.2940   70.1780 C.2       1 SUB1        0.087
     12 O1'         7.9580   19.2460   69.5050 O.co2     1 SUB1       -0.553
     13 O2'         6.9450   21.1680   69.8900 O.co2     1 SUB1       -0.553
     14 C2'         8.3640   20.4100   71.4990 C.2       1 SUB1        0.104
     15 O3'         7.6690   20.9510   72.5440 O.3       1 SUB1       -0.298
     16 C3'         9.7130   19.9490   71.6550 C.2       1 SUB1       -0.071
     17 H21         6.5952   22.2810   73.8241 H         1 SUB1        0.081
     18 H31         4.6693   22.8178   74.4391 H         1 SUB1        0.213
     19 H41         5.7224   21.0969   71.9000 H         1 SUB1        0.091
     20 H51         6.0164   18.6834   71.9888 H         1 SUB1        0.075
     21 H61         6.0564   17.5718   74.1833 H         1 SUB1        0.051
     22 H71         6.2110   18.8971   76.3025 H         1 SUB1        0.050
     23 H161       10.2005   20.0105   72.6269 H         1 SUB1        0.044
     24 H162       10.2499   19.5375   70.8016 H         1 SUB1        0.044
@<TRIPOS>BOND
     1    2    1 1  
     2    1    7 2  
     3    1    8 1  
     4    2    3 1  
     5    4    2 1  
     6    4    5 1  
     7   15    4 1  
     8    5    6 2  
     9    6    7 1  
    10    8    9 2  
    11    8   10 2  
    12   11   12 2  
    13   11   13 2  
    14   14   11 1  
    15   15   14 1  
    16   14   16 2  
    17    2   17 1  
    18    3   18 1  
    19    4   19 1  
    20    5   20 1  
    21    6   21 1  
    22    7   22 1  
    23   16   23 1  
    24   16   24 1  
@<TRIPOS>SUBSTRUCTURE
     1 SUB1        1 GROUP

