2boh_ligand
  -I-interpret- 

 60 64  0  0  0  0  0  0  0  0999 V2000
    2.2850    8.5850   25.9480 C   0  0  0  0  0
    3.4480    8.9570   25.1150 C   0  0  0  0  0
    4.0950    8.0100   24.1680 C   0  0  0  0  0
    3.5260    6.6310   24.0990 C   0  0  0  0  0
    2.3800    6.2500   24.9270 C   0  0  0  0  0
    1.7630    7.2180   25.8440 C   0  0  0  0  0
    5.1740    8.0190   23.2350 N   0  0  0  0  0
    5.2550    6.7950   22.7150 C   0  0  0  0  0
    4.2750    5.9110   23.1780 C   0  0  0  0  0
    6.2700    6.3010   21.9400 C   0  0  0  0  0
    5.8420    5.3110   21.1840 N   0  0  0  0  0
    6.8610    4.4620   20.6990 C   0  0  0  0  0
    6.2680    3.0750   20.4830 C   0  0  0  0  0
    7.2670    2.0940   19.8740 C   0  0  0  0  0
    7.7790    2.6860   18.5870 N   0  0  0  0  0
    8.4250    4.0240   18.7440 C   0  0  0  0  0
    7.4000    4.9710   19.3650 C   0  0  0  0  0
    8.6540    1.7300   17.8630 C   0  0  0  0  0
    9.3020    2.3550   16.6420 C   0  0  0  0  0
    7.8180    0.5530   17.4320 C   0  0  0  0  0
    6.1360    9.0320   22.7490 C   0  0  0  0  0
    7.4030    9.1580   23.5570 C   0  0  0  0  0
    8.4150    9.9160   23.1230 N   0  0  0  0  0
    9.4730    9.7320   24.0210 O   0  0  0  0  0
    9.0420    8.8750   24.9910 C   0  0  0  0  0
    7.6540    8.5190   24.8410 C   0  0  0  0  0
    9.9480    8.2920   25.9640 C   0  0  0  0  0
   11.5760    8.4740   25.4560 S   0  0  0  0  0
   12.0920    7.6350   26.9240 C   0  0  0  0  0
   11.0840    7.2210   27.7070 C   0  0  0  0  0
    9.8020    7.5960   27.1140 C   0  0  0  0  0
   13.7560    7.4090   27.1440 Cl  0  0  0  0  0
    7.4270    6.7250   21.9630 O   0  0  0  0  0
    1.8268    9.3082   26.6226 H   0  0  0  0  0
    3.8482    9.9675   25.1982 H   0  0  0  0  0
    1.9806    5.2379   24.8624 H   0  0  0  0  0
    0.9099    6.9178   26.4524 H   0  0  0  0  0
    4.1296    4.8732   22.8783 H   0  0  0  0  0
    4.8556    5.1692   20.9667 H   0  0  0  0  0
    7.6759    4.4357   21.4224 H   0  0  0  0  0
    5.4316    3.1732   19.7909 H   0  0  0  0  0
    5.9670    2.6851   21.4553 H   0  0  0  0  0
    6.7832    1.1365   19.6808 H   0  0  0  0  0
    8.0935    1.9227   20.5637 H   0  0  0  0  0
    8.7494    4.4024   17.7746 H   0  0  0  0  0
    9.3033    3.9460   19.3848 H   0  0  0  0  0
    7.8930    5.9262   19.5456 H   0  0  0  0  0
    6.5605    5.0551   18.6748 H   0  0  0  0  0
    9.4544    1.4233   18.5363 H   0  0  0  0  0
    8.5271    2.6926   15.9538 H   0  0  0  0  0
    9.9112    3.2046   16.9504 H   0  0  0  0  0
    9.9316    1.6152   16.1476 H   0  0  0  0  0
    7.3876    0.0734   18.3111 H   0  0  0  0  0
    7.0183    0.8976   16.7764 H   0  0  0  0  0
    8.4454   -0.1605   16.8978 H   0  0  0  0  0
    5.6307    9.9960   22.8088 H   0  0  0  0  0
    6.4344    8.7235   21.7471 H   0  0  0  0  0
    6.9930    7.9457   25.4910 H   0  0  0  0  0
   11.2038    6.6836   28.6477 H   0  0  0  0  0
    8.8357    7.3428   27.5502 H   0  0  0  0  0
  1  2  4  0  0  0
  1  6  4  0  0  0
  2  3  4  0  0  0
  3  4  4  0  0  0
  3  7  1  0  0  0
  4  5  4  0  0  0
  4  9  1  0  0  0
  5  6  4  0  0  0
  7  8  1  0  0  0
  7 21  1  0  0  0
  8  9  2  0  0  0
  8 10  1  0  0  0
 10 11  1  0  0  0
 10 33  2  0  0  0
 11 12  1  0  0  0
 12 13  1  0  0  0
 12 17  1  0  0  0
 13 14  1  0  0  0
 14 15  1  0  0  0
 15 16  1  0  0  0
 15 18  1  0  0  0
 16 17  1  0  0  0
 18 19  1  0  0  0
 18 20  1  0  0  0
 21 22  1  0  0  0
 22 23  2  0  0  0
 22 26  1  0  0  0
 23 24  1  0  0  0
 24 25  1  0  0  0
 25 26  2  0  0  0
 25 27  1  0  0  0
 27 28  1  0  0  0
 27 31  2  0  0  0
 28 29  1  0  0  0
 29 30  2  0  0  0
 29 32  1  0  0  0
 30 31  1  0  0  0
  1 34  1  0  0  0
  2 35  1  0  0  0
  5 36  1  0  0  0
  6 37  1  0  0  0
  9 38  1  0  0  0
 11 39  1  0  0  0
 12 40  1  0  0  0
 13 41  1  0  0  0
 13 42  1  0  0  0
 14 43  1  0  0  0
 14 44  1  0  0  0
 16 45  1  0  0  0
 16 46  1  0  0  0
 17 47  1  0  0  0
 17 48  1  0  0  0
 18 49  1  0  0  0
 19 50  1  0  0  0
 19 51  1  0  0  0
 19 52  1  0  0  0
 20 53  1  0  0  0
 20 54  1  0  0  0
 20 55  1  0  0  0
 21 56  1  0  0  0
 21 57  1  0  0  0
 26 58  1  0  0  0
 30 59  1  0  0  0
 31 60  1  0  0  0
M  END
$$$$
