### 
### Created by X-TOOL on Sun Jun  3 11:17:23 2007
### 

@<TRIPOS>MOLECULE
2boh_ligand
   60    64     1     0     0
SMALL
GAST_HUCK


@<TRIPOS>ATOM
      1 C1          2.2850    8.5850   25.9480 C.ar      1 SUB1       -0.074
      2 C2          3.4480    8.9570   25.1150 C.ar      1 SUB1       -0.040
      3 C3          4.0950    8.0100   24.1680 C.ar      1 SUB1        0.072
      4 C4          3.5260    6.6310   24.0990 C.ar      1 SUB1       -0.017
      5 C5          2.3800    6.2500   24.9270 C.ar      1 SUB1       -0.071
      6 C6          1.7630    7.2180   25.8440 C.ar      1 SUB1       -0.076
      7 N7          5.1740    8.0190   23.2350 N.pl3     1 SUB1       -0.242
      8 C8          5.2550    6.7950   22.7150 C.2       1 SUB1        0.136
      9 C9          4.2750    5.9110   23.1780 C.2       1 SUB1       -0.039
     10 C10         6.2700    6.3010   21.9400 C.2       1 SUB1        0.227
     11 N11         5.8420    5.3110   21.1840 N.am      1 SUB1       -0.282
     12 C12         6.8610    4.4620   20.6990 C.3       1 SUB1        0.044
     13 C13         6.2680    3.0750   20.4830 C.3       1 SUB1       -0.017
     14 C14         7.2670    2.0940   19.8740 C.3       1 SUB1        0.001
     15 N15         7.7790    2.6860   18.5870 N.3       1 SUB1       -0.300
     16 C16         8.4250    4.0240   18.7440 C.3       1 SUB1        0.001
     17 C17         7.4000    4.9710   19.3650 C.3       1 SUB1       -0.017
     18 C27         8.6540    1.7300   17.8630 C.3       1 SUB1        0.005
     19 C28         9.3020    2.3550   16.6420 C.3       1 SUB1       -0.050
     20 C32         7.8180    0.5530   17.4320 C.3       1 SUB1       -0.050
     21 C37         6.1360    9.0320   22.7490 C.3       1 SUB1        0.090
     22 C38         7.4030    9.1580   23.5570 C.2       1 SUB1        0.055
     23 N41         8.4150    9.9160   23.1230 N.2       1 SUB1       -0.157
     24 O42         9.4730    9.7320   24.0210 O.3       1 SUB1       -0.179
     25 C43         9.0420    8.8750   24.9910 C.2       1 SUB1        0.160
     26 C44         7.6540    8.5190   24.8410 C.2       1 SUB1       -0.021
     27 C45         9.9480    8.2920   25.9640 C.2       1 SUB1        0.072
     28 S46        11.5760    8.4740   25.4560 S.3       1 SUB1       -0.024
     29 C47        12.0920    7.6350   26.9240 C.2       1 SUB1        0.096
     30 C48        11.0840    7.2210   27.7070 C.2       1 SUB1       -0.059
     31 C49         9.8020    7.5960   27.1140 C.2       1 SUB1       -0.064
     32 CL50       13.7560    7.4090   27.1440 Cl        1 SUB1       -0.055
     33 O56         7.4270    6.7250   21.9630 O.2       1 SUB1       -0.384
     34 H           1.8268    9.3082   26.6226 H         1 SUB1        0.055
     35 H           3.8482    9.9675   25.1982 H         1 SUB1        0.055
     36 H           1.9806    5.2379   24.8624 H         1 SUB1        0.056
     37 H           0.9099    6.9178   26.4524 H         1 SUB1        0.052
     38 H           4.1296    4.8732   22.8783 H         1 SUB1        0.040
     39 H           4.8556    5.1692   20.9667 H         1 SUB1        0.184
     40 H           7.6759    4.4357   21.4224 H         1 SUB1        0.056
     41 H           5.4316    3.1732   19.7909 H         1 SUB1        0.030
     42 H           5.9670    2.6851   21.4553 H         1 SUB1        0.030
     43 H           6.7832    1.1365   19.6808 H         1 SUB1        0.043
     44 H           8.0935    1.9227   20.5637 H         1 SUB1        0.043
     45 H           8.7494    4.4024   17.7746 H         1 SUB1        0.043
     46 H           9.3033    3.9460   19.3848 H         1 SUB1        0.043
     47 H           7.8930    5.9262   19.5456 H         1 SUB1        0.030
     48 H           6.5605    5.0551   18.6748 H         1 SUB1        0.030
     49 H           9.4544    1.4233   18.5363 H         1 SUB1        0.046
     50 H           8.5271    2.6926   15.9538 H         1 SUB1        0.024
     51 H           9.9112    3.2046   16.9504 H         1 SUB1        0.024
     52 H           9.9316    1.6152   16.1476 H         1 SUB1        0.024
     53 H           7.3876    0.0734   18.3111 H         1 SUB1        0.024
     54 H           7.0183    0.8976   16.7764 H         1 SUB1        0.024
     55 H           8.4454   -0.1605   16.8978 H         1 SUB1        0.024
     56 H           5.6307    9.9960   22.8088 H         1 SUB1        0.075
     57 H           6.4344    8.7235   21.7471 H         1 SUB1        0.075
     58 H           6.9930    7.9457   25.4910 H         1 SUB1        0.037
     59 H          11.2038    6.6836   28.6477 H         1 SUB1        0.044
     60 H           8.8357    7.3428   27.5502 H         1 SUB1        0.045
@<TRIPOS>BOND
     1    1    2 ar 
     2    1    6 ar 
     3    2    3 ar 
     4    3    4 ar 
     5    3    7 1  
     6    4    5 ar 
     7    4    9 1  
     8    5    6 ar 
     9    7    8 1  
    10    7   21 1  
    11    8    9 2  
    12    8   10 1  
    13   10   11 am 
    14   10   33 2  
    15   11   12 1  
    16   12   13 1  
    17   12   17 1  
    18   13   14 1  
    19   14   15 1  
    20   15   16 1  
    21   15   18 1  
    22   16   17 1  
    23   18   19 1  
    24   18   20 1  
    25   21   22 1  
    26   22   23 2  
    27   22   26 1  
    28   23   24 1  
    29   24   25 1  
    30   25   26 2  
    31   25   27 1  
    32   27   28 1  
    33   27   31 2  
    34   28   29 1  
    35   29   30 2  
    36   29   32 1  
    37   30   31 1  
    38    1   34 1  
    39    2   35 1  
    40    5   36 1  
    41    6   37 1  
    42    9   38 1  
    43   11   39 1  
    44   12   40 1  
    45   13   41 1  
    46   13   42 1  
    47   14   43 1  
    48   14   44 1  
    49   16   45 1  
    50   16   46 1  
    51   17   47 1  
    52   17   48 1  
    53   18   49 1  
    54   19   50 1  
    55   19   51 1  
    56   19   52 1  
    57   20   53 1  
    58   20   54 1  
    59   20   55 1  
    60   21   56 1  
    61   21   57 1  
    62   26   58 1  
    63   30   59 1  
    64   31   60 1  
@<TRIPOS>SUBSTRUCTURE
     1 SUB1        1 GROUP

