### 
### Created by X-TOOL on Tue Oct 25 01:55:24 2005
### 

@<TRIPOS>MOLECULE
1o9d_ligand
   85    85     1     0     0
SMALL
GAST_HUCK


@<TRIPOS>ATOM
      1 N          42.6670   52.3990   18.7130 N.4       1 SUB1        0.238
      2 CA         42.3850   52.2380   20.1780 C.3       1 SUB1        0.067
      3 C          41.6340   53.4410   20.7690 C.2       1 SUB1        0.227
      4 O          41.9900   54.5990   20.5720 O.2       1 SUB1       -0.391
      5 CB         43.6830   51.9780   20.9540 C.3       1 SUB1        0.025
      6 CG         44.0490   50.4780   21.0650 C.3       1 SUB1        0.044
      7 CD         44.0420   49.7470   19.6860 C.2       1 SUB1        0.174
      8 OE1        42.9770   49.5860   19.0530 O.2       1 SUB1       -0.397
      9 NE2        45.2350   49.3210   19.2180 N.am      1 SUB1       -0.301
     10 N          40.5650   53.1170   21.4770 N.am      1 SUB1       -0.259
     11 CA         39.6770   54.0510   22.1080 C.3       1 SUB1        0.154
     12 C          39.7010   53.7020   23.5850 C.2       1 SUB1        0.206
     13 O          40.2050   52.6420   23.9750 O.2       1 SUB1       -0.394
     14 CB         38.2660   53.8720   21.5370 C.3       1 SUB1        0.084
     15 OG         38.2760   53.9310   20.1070 O.3       1 SUB1       -0.390
     16 N          39.1790   54.5910   24.4190 N.am      1 SUB1       -0.262
     17 CA         39.1710   54.3030   25.8440 C.3       1 SUB1        0.139
     18 C          38.0600   53.3390   26.1670 C.2       1 SUB1        0.206
     19 O          36.9490   53.4260   25.5950 O.2       1 SUB1       -0.394
     20 CB         38.9320   55.5800   26.6560 C.3       1 SUB1        0.016
     21 CG         39.9690   56.6140   26.3860 C.ar      1 SUB1       -0.049
     22 CD1        41.2040   56.5500   27.0160 C.ar      1 SUB1       -0.068
     23 CD2        39.7640   57.5890   25.4170 C.ar      1 SUB1       -0.068
     24 CE1        42.2200   57.4240   26.6910 C.ar      1 SUB1       -0.040
     25 CE2        40.7900   58.4680   25.0670 C.ar      1 SUB1       -0.040
     26 CZ         42.0130   58.3740   25.7100 C.ar      1 SUB1        0.080
     27 OH         43.0620   59.1750   25.3290 O.3       1 SUB1       -0.338
     28 N          38.3750   52.4170   27.0700 N.am      1 SUB1       -0.261
     29 CA         37.3710   51.4850   27.5990 C.3       1 SUB1        0.161
     30 CB         37.4850   50.0620   26.9410 C.3       1 SUB1        0.114
     31 CG2        37.2130   50.1460   25.4340 C.3       1 SUB1       -0.030
     32 OG1        38.8010   49.5630   27.2530 O.3       1 SUB1       -0.315
     33 P          39.2920   48.0940   26.9360 P.3       1 SUB1        0.206
     34 O1P        39.3670   47.9830   25.3450 O.co2     1 SUB1       -0.535
     35 O2P        38.3110   47.0640   27.5230 O.co2     1 SUB1       -0.535
     36 O3P        40.7410   47.9920   27.5400 O.co2     1 SUB1       -0.535
     37 C          37.6790   51.4220   29.0860 C.2       1 SUB1        0.208
     38 O          38.7290   51.9160   29.5110 O.2       1 SUB1       -0.394
     39 N          36.7880   50.8520   29.8720 N.am      1 SUB1       -0.268
     40 CA         37.0160   50.6400   31.3000 C.3       1 SUB1        0.084
     41 C          36.5540   49.2720   31.7310 C.2       1 SUB1        0.053
     42 O          35.9690   48.5200   30.8860 O.co2     1 SUB1       -0.564
     43 CB         36.2920   51.6600   32.2150 C.3       1 SUB1       -0.012
     44 CG1        36.9540   53.0570   32.0280 C.3       1 SUB1       -0.058
     45 CG2        34.7730   51.6640   31.9200 C.3       1 SUB1       -0.058
     46 OXT        36.7840   48.9630   32.9360 O.co2     1 SUB1       -0.564
     47 H11        42.3210   53.2897   18.3922 H         1 SUB1        0.201
     48 H21        41.7293   51.3634   20.3010 H         1 SUB1        0.110
     49 H51        44.5109   52.4898   20.4415 H         1 SUB1        0.037
     50 H52        43.5797   52.3961   21.9661 H         1 SUB1        0.037
     51 H61        45.0581   50.3869   21.4931 H         1 SUB1        0.051
     52 H62        43.3323   49.9846   21.7379 H         1 SUB1        0.051
     53 H91        46.0665   49.4798   19.7503 H         1 SUB1        0.181
     54 H92        45.2869   48.8467   18.3391 H         1 SUB1        0.181
     55 H391       35.9031   50.5463   29.4673 H         1 SUB1        0.190
     56 H101       40.3592   52.1439   21.5808 H         1 SUB1        0.189
     57 H12        42.1943   51.6548   18.2001 H         1 SUB1        0.201
     58 H111       40.0186   55.0864   21.9628 H         1 SUB1        0.082
     59 H141       37.8697   52.8924   21.8424 H         1 SUB1        0.061
     60 H142       37.6089   54.6598   21.9338 H         1 SUB1        0.061
     61 H151       37.3912   53.8175   19.7803 H         1 SUB1        0.210
     62 H161       38.7962   55.4475   24.0726 H         1 SUB1        0.189
     63 H171       40.1314   53.8507   26.1319 H         1 SUB1        0.082
     64 H201       37.9502   55.9991   26.3906 H         1 SUB1        0.045
     65 H202       38.9341   55.3324   27.7277 H         1 SUB1        0.045
     66 H221       41.3733   55.7983   27.7785 H         1 SUB1        0.053
     67 H231       38.7992   57.6674   24.9290 H         1 SUB1        0.053
     68 H241       43.1743   57.3658   27.2018 H         1 SUB1        0.052
     69 H251       40.6312   59.2169   24.2995 H         1 SUB1        0.052
     70 H271       43.8190   58.9820   25.8696 H         1 SUB1        0.246
     71 H401       38.0986   50.7098   31.4816 H         1 SUB1        0.078
     72 H431       36.4369   51.3659   33.2650 H         1 SUB1        0.035
     73 H441       36.4462   53.7840   32.6789 H         1 SUB1        0.024
     74 H442       38.0171   53.0086   32.3063 H         1 SUB1        0.024
     75 H443       36.8765   53.3712   30.9767 H         1 SUB1        0.024
     76 H451       34.2825   52.3971   32.5772 H         1 SUB1        0.024
     77 H452       34.5951   51.9471   30.8721 H         1 SUB1        0.024
     78 H453       34.3547   50.6614   32.0924 H         1 SUB1        0.024
     79 H281       39.3180   52.3562   27.3972 H         1 SUB1        0.188
     80 H291       36.3554   51.8781   27.4444 H         1 SUB1        0.083
     81 H301       36.7463   49.3832   27.3921 H         1 SUB1        0.069
     82 H311       37.2986   49.1397   24.9980 H         1 SUB1        0.026
     83 H312       36.1967   50.5277   25.2570 H         1 SUB1        0.026
     84 H313       37.9506   50.8074   24.9560 H         1 SUB1        0.026
     85 H13        43.6604   52.3575   18.5475 H         1 SUB1        0.201
@<TRIPOS>BOND
     1    2    1 1  
     2    2    5 1  
     3    3    2 1  
     4    3    4 2  
     5    5    6 1  
     6    6    7 1  
     7    7    9 am 
     8    7    8 2  
     9   11   10 1  
    10   11   14 1  
    11   12   11 1  
    12   12   13 2  
    13   14   15 1  
    14   10    3 am 
    15   17   16 1  
    16   17   20 1  
    17   18   17 1  
    18   18   19 2  
    19   20   21 1  
    20   21   22 ar 
    21   21   23 ar 
    22   23   25 ar 
    23   25   26 ar 
    24   26   27 1  
    25   24   26 ar 
    26   22   24 ar 
    27   16   12 am 
    28   39   40 1  
    29   40   43 1  
    30   40   41 1  
    31   41   42 2  
    32   41   46 2  
    33   43   45 1  
    34   43   44 1  
    35   28   18 am 
    36   29   28 1  
    37   29   30 1  
    38   37   29 1  
    39   30   31 1  
    40   30   32 1  
    41   32   33 1  
    42   33   34 2  
    43   33   35 2  
    44   33   36 2  
    45   37   39 am 
    46   37   38 2  
    47    1   57 1  
    48   39   55 1  
    49    1   47 1  
    50    2   48 1  
    51    5   49 1  
    52    5   50 1  
    53    6   51 1  
    54    6   52 1  
    55    9   53 1  
    56    9   54 1  
    57   10   56 1  
    58   11   58 1  
    59   14   59 1  
    60   14   60 1  
    61   15   61 1  
    62   16   62 1  
    63   17   63 1  
    64   20   64 1  
    65   20   65 1  
    66   22   66 1  
    67   23   67 1  
    68   24   68 1  
    69   25   69 1  
    70   27   70 1  
    71   40   71 1  
    72   43   72 1  
    73   44   73 1  
    74   44   74 1  
    75   44   75 1  
    76   45   76 1  
    77   45   77 1  
    78   45   78 1  
    79   28   79 1  
    80   29   80 1  
    81   30   81 1  
    82   31   82 1  
    83   31   83 1  
    84   31   84 1  
    85    1   85 1  
@<TRIPOS>SUBSTRUCTURE
     1 SUB1        1 GROUP

