1b74_ligand
  -I-interpret- 

 20 19  0  0  0  0  0  0  0  0999 V2000
   22.8340   33.4800   29.8040 N   0  3  0  0  0
   22.3240   33.5900   28.5110 C   0  0  0  0  0
   21.8400   32.2630   28.0660 C   0  0  0  0  0
   21.3130   32.1230   26.9450 O   0  5  0  0  0
   21.9730   31.2790   28.8100 O   0  0  0  0  0
   21.2510   34.6010   28.5290 C   0  0  0  0  0
   21.7630   35.9030   29.1310 C   0  0  0  0  0
   20.6480   36.8320   29.1300 C   0  0  0  0  0
   19.4880   36.3960   28.9370 O   0  0  0  0  0
   21.0120   38.1270   29.3580 N   0  0  0  0  0
   23.1629   34.3840   30.1051 H   0  0  0  0  0
   22.1112   33.1675   30.4332 H   0  0  0  0  0
   23.6043   32.8300   29.8155 H   0  0  0  0  0
   23.1108   33.9357   27.8245 H   0  0  0  0  0
   20.9112   34.7975   27.5015 H   0  0  0  0  0
   20.4108   34.2373   29.1387 H   0  0  0  0  0
   22.1062   35.7409   30.1634 H   0  0  0  0  0
   22.5833   36.3118   28.5229 H   0  0  0  0  0
   20.3170   38.8457   29.3773 H   0  0  0  0  0
   21.9738   38.3574   29.5058 H   0  0  0  0  0
  1  2  1  0  0  0
  2  3  1  0  0  0
  2  6  1  0  0  0
  3  4  1  0  0  0
  3  5  2  0  0  0
  6  7  1  0  0  0
  7  8  1  0  0  0
  8  9  2  0  0  0
  8 10  1  0  0  0
  1 11  1  0  0  0
  1 12  1  0  0  0
  1 13  1  0  0  0
  2 14  1  0  0  0
  6 15  1  0  0  0
  6 16  1  0  0  0
  7 17  1  0  0  0
  7 18  1  0  0  0
 10 19  1  0  0  0
 10 20  1  0  0  0
M  END
$$$$
