### 
### Created by X-TOOL on Tue Oct 25 01:55:16 2005
### 

@<TRIPOS>MOLECULE
1b74_ligand
   20    19     1     0     0
SMALL
GAST_HUCK


@<TRIPOS>ATOM
      1 N          22.8340   33.4800   29.8040 N.4       1 SUB1        0.238
      2 CA         22.3240   33.5900   28.5110 C.3       1 SUB1        0.017
      3 C          21.8400   32.2630   28.0660 C.2       1 SUB1        0.076
      4 O          21.3130   32.1230   26.9450 O.co2     1 SUB1       -0.561
      5 OXT        21.9730   31.2790   28.8100 O.co2     1 SUB1       -0.561
      6 CB         21.2510   34.6010   28.5290 C.3       1 SUB1        0.018
      7 CG         21.7630   35.9030   29.1310 C.3       1 SUB1        0.045
      8 CD         20.6480   36.8320   29.1300 C.2       1 SUB1        0.174
      9 OE1        19.4880   36.3960   28.9370 O.2       1 SUB1       -0.397
     10 NE2        21.0120   38.1270   29.3580 N.am      1 SUB1       -0.301
     11 H11        23.1629   34.3840   30.1051 H         1 SUB1        0.202
     12 H12        22.1112   33.1675   30.4332 H         1 SUB1        0.202
     13 H13        23.6043   32.8300   29.8155 H         1 SUB1        0.202
     14 H21        23.1108   33.9357   27.8245 H         1 SUB1        0.107
     15 H61        20.9112   34.7975   27.5015 H         1 SUB1        0.038
     16 H62        20.4108   34.2373   29.1387 H         1 SUB1        0.038
     17 H71        22.1062   35.7409   30.1634 H         1 SUB1        0.051
     18 H72        22.5833   36.3118   28.5229 H         1 SUB1        0.051
     19 H101       20.3170   38.8457   29.3773 H         1 SUB1        0.181
     20 H102       21.9738   38.3574   29.5058 H         1 SUB1        0.181
@<TRIPOS>BOND
     1    1    2 1  
     2    2    3 1  
     3    2    6 1  
     4    3    4 2  
     5    3    5 2  
     6    6    7 1  
     7    7    8 1  
     8    8    9 2  
     9    8   10 am 
    10    1   11 1  
    11    1   12 1  
    12    1   13 1  
    13    2   14 1  
    14    6   15 1  
    15    6   16 1  
    16    7   17 1  
    17    7   18 1  
    18   10   19 1  
    19   10   20 1  
@<TRIPOS>SUBSTRUCTURE
     1 SUB1        1 GROUP

