### 
### Created by X-TOOL on Mon Oct 24 22:40:48 2005
### 

@<TRIPOS>MOLECULE
1b51_ligand
   58    57     1     0     0
SMALL
GAST_HUCK


@<TRIPOS>ATOM
      1 N           6.8910   16.4790   15.0950 N.4       1 SUB1        0.238
      2 CA          6.3900   17.7900   14.5770 C.3       1 SUB1        0.065
      3 C           5.1740   18.2680   15.3430 C.2       1 SUB1        0.227
      4 O           4.4150   17.4750   15.8880 O.2       1 SUB1       -0.391
      5 CB          6.1120   17.7260   13.0640 C.3       1 SUB1        0.008
      6 CG          5.2320   16.5440   12.6860 C.3       1 SUB1       -0.041
      7 CD          5.1210   16.4580   11.1480 C.3       1 SUB1       -0.012
      8 CE          6.3950   15.8780   10.5460 C.3       1 SUB1       -0.035
      9 NZ          6.5490   14.4230   10.8820 N.4       1 SUB1        0.219
     10 N           5.0030   19.5780   15.4000 N.am      1 SUB1       -0.259
     11 CA          3.9490   20.2090   16.1900 C.3       1 SUB1        0.154
     12 C           2.6020   20.2310   15.5050 C.2       1 SUB1        0.207
     13 O           2.5430   20.5580   14.3230 O.2       1 SUB1       -0.394
     14 CB          4.4210   21.6540   16.4120 C.3       1 SUB1        0.084
     15 OG          3.8300   22.1840   17.5950 O.3       1 SUB1       -0.390
     16 N           1.4950   19.9330   16.2360 N.am      1 SUB1       -0.268
     17 CA          0.2360   19.8690   15.5110 C.3       1 SUB1        0.081
     18 C          -0.8680   20.6600   16.2440 C.2       1 SUB1        0.053
     19 O          -0.7500   20.9240   17.4390 O.co2     1 SUB1       -0.564
     20 CB         -0.3000   18.4420   15.3170 C.3       1 SUB1       -0.018
     21 CG         -1.3690   18.4670   14.1820 C.3       1 SUB1       -0.043
     22 CD         -1.9810   17.1150   13.9430 C.3       1 SUB1       -0.012
     23 CE         -2.9390   17.0470   12.7500 C.3       1 SUB1       -0.035
     24 NZ         -3.7030   18.3150   12.6290 N.4       1 SUB1        0.219
     25 OXT        -1.8020   21.0200   15.5080 O.co2     1 SUB1       -0.564
     26 H11         6.3142   16.1797   15.8656 H         1 SUB1        0.201
     27 H21         7.1878   18.5308   14.7337 H         1 SUB1        0.110
     28 H51         7.0707   17.6371   12.5320 H         1 SUB1        0.035
     29 H52         5.6075   18.6543   12.7578 H         1 SUB1        0.035
     30 H61         4.2300   16.6791   13.1192 H         1 SUB1        0.027
     31 H62         5.6772   15.6161   13.0743 H         1 SUB1        0.027
     32 H71         4.9565   17.4667   10.7412 H         1 SUB1        0.032
     33 H72         4.2705   15.8127   10.8832 H         1 SUB1        0.032
     34 H81         7.2606   16.4297   10.9414 H         1 SUB1        0.081
     35 H82         6.3570   15.9903    9.4524 H         1 SUB1        0.081
     36 H91         6.5993   14.3128   11.8827 H         1 SUB1        0.199
     37 H92         7.3941   14.0688   10.4621 H         1 SUB1        0.199
     38 H93         5.7570   13.9105   10.5269 H         1 SUB1        0.199
     39 H101        5.6237   20.1634   14.8784 H         1 SUB1        0.189
     40 H111        3.8479   19.6851   17.1519 H         1 SUB1        0.082
     41 H141        4.1256   22.2701   15.5499 H         1 SUB1        0.061
     42 H142        5.5161   21.6677   16.5144 H         1 SUB1        0.061
     43 H151        4.1276   23.0769   17.7236 H         1 SUB1        0.210
     44 H161        1.5440   19.7665   17.2208 H         1 SUB1        0.190
     45 H171        0.4001   20.3169   14.5198 H         1 SUB1        0.078
     46 H201       -0.7590   18.0874   16.2516 H         1 SUB1        0.032
     47 H202        0.5246   17.7706   15.0358 H         1 SUB1        0.032
     48 H211       -0.8896   18.8073   13.2523 H         1 SUB1        0.027
     49 H212       -2.1661   19.1712   14.4625 H         1 SUB1        0.027
     50 H221       -2.5383   16.8268   14.8465 H         1 SUB1        0.032
     51 H222       -1.1666   16.3962   13.7697 H         1 SUB1        0.032
     52 H231       -3.6412   16.2129   12.8956 H         1 SUB1        0.081
     53 H232       -2.3605   16.8827   11.8290 H         1 SUB1        0.081
     54 H241       -4.2436   18.4628   13.4668 H         1 SUB1        0.199
     55 H242       -4.3218   18.2600   11.8352 H         1 SUB1        0.199
     56 H243       -3.0621   19.0827   12.5028 H         1 SUB1        0.199
     57 H12         7.8432   16.5834   15.4088 H         1 SUB1        0.201
     58 H13         6.8531   15.7905   14.3597 H         1 SUB1        0.201
@<TRIPOS>BOND
     1    2    1 1  
     2    2    5 1  
     3    3    2 1  
     4    3    4 2  
     5    5    6 1  
     6    6    7 1  
     7    7    8 1  
     8    8    9 1  
     9   11   10 1  
    10   11   14 1  
    11   12   11 1  
    12   12   13 2  
    13   14   15 1  
    14   10    3 am 
    15   16   17 1  
    16   17   20 1  
    17   17   18 1  
    18   18   19 2  
    19   18   25 2  
    20   20   21 1  
    21   21   22 1  
    22   22   23 1  
    23   23   24 1  
    24   12   16 am 
    25    1   26 1  
    26    2   27 1  
    27    5   28 1  
    28    5   29 1  
    29    6   30 1  
    30    6   31 1  
    31    7   32 1  
    32    7   33 1  
    33    8   34 1  
    34    8   35 1  
    35    9   36 1  
    36    9   37 1  
    37    9   38 1  
    38   10   39 1  
    39   11   40 1  
    40   14   41 1  
    41   14   42 1  
    42   15   43 1  
    43   16   44 1  
    44   17   45 1  
    45   20   46 1  
    46   20   47 1  
    47   21   48 1  
    48   21   49 1  
    49   22   50 1  
    50   22   51 1  
    51   23   52 1  
    52   23   53 1  
    53   24   54 1  
    54   24   55 1  
    55   24   56 1  
    56    1   57 1  
    57    1   58 1  
@<TRIPOS>SUBSTRUCTURE
     1 SUB1        1 GROUP

