1db1_ligand
  -I-interpret- 

 74 76  0  0  0  0  0  0  0  0999 V2000
   17.0290   18.0710   34.8190 O   0  0  0  0  0
    4.4890   26.9460   35.0540 O   0  0  0  0  0
   14.1390   17.9530   35.7550 C   0  0  0  0  0
   14.8790   16.8930   34.8950 C   0  0  0  0  0
   15.9920   17.5340   33.9620 C   0  0  0  0  0
   15.3680   18.6720   33.0490 C   0  0  0  0  0
   14.6220   19.7240   33.8640 C   0  0  0  0  0
   14.7970   21.1200   33.7920 C   0  0  0  0  0
   14.1740   22.2860   34.5140 C   0  0  0  0  0
   13.9660   23.4880   34.0420 C   0  0  0  0  0
   14.3540   23.9270   32.5440 C   0  0  0  0  0
   13.6020   19.0750   34.8280 C   0  0  0  0  0
   13.0880   24.4900   31.6710 C   0  0  0  0  0
   12.1470   25.4430   32.5640 C   0  0  0  0  0
   11.7530   24.8970   34.0700 C   0  0  0  0  0
   13.1480   24.5380   34.7770 C   0  0  0  0  0
   12.6610   24.2660   36.3500 C   0  0  0  0  0
   11.4290   25.2310   36.4970 C   0  0  0  0  0
   11.2760   25.9340   35.1060 C   0  0  0  0  0
   10.7690   23.5700   33.7790 C   0  0  0  0  0
   12.2910   19.4550   34.8520 C   0  0  0  0  0
    9.8490   26.5460   34.7260 C   0  0  0  0  0
    9.8040   27.9560   35.4820 C   0  0  0  0  0
    8.5750   25.8240   35.2680 C   0  0  0  0  0
    7.3310   26.0600   34.4050 C   0  0  0  0  0
    6.1520   25.2660   34.6720 C   0  0  0  0  0
    4.7750   25.7760   34.3360 C   0  0  0  0  0
    4.7010   26.0100   32.8420 C   0  0  0  0  0
    3.6680   24.7300   34.7230 C   0  0  0  0  0
   13.1190   17.3590   36.6200 O   0  0  0  0  0
   17.7097   18.4618   34.2838 H   0  0  0  0  0
    4.5437   26.7661   35.9852 H   0  0  0  0  0
   14.8756   18.4088   36.4330 H   0  0  0  0  0
   15.3682   16.1677   35.5617 H   0  0  0  0  0
   14.1491   16.3788   34.2525 H   0  0  0  0  0
   16.4163   16.7623   33.3029 H   0  0  0  0  0
   16.1759   19.1749   32.4973 H   0  0  0  0  0
   14.6575   18.2181   32.3425 H   0  0  0  0  0
   15.5422   21.4205   33.0570 H   0  0  0  0  0
   13.8624   22.1087   35.5423 H   0  0  0  0  0
   15.1091   24.7253   32.5940 H   0  0  0  0  0
   14.7651   23.0545   32.0153 H   0  0  0  0  0
   13.4630   25.0722   30.8164 H   0  0  0  0  0
   12.4855   23.6426   31.3120 H   0  0  0  0  0
   12.6642   26.4049   32.6951 H   0  0  0  0  0
   11.2035   25.5956   32.0196 H   0  0  0  0  0
   13.7797   25.4383   34.7952 H   0  0  0  0  0
   12.3541   23.2207   36.5020 H   0  0  0  0  0
   13.4499   24.5335   37.0683 H   0  0  0  0  0
   10.5157   24.6645   36.7315 H   0  0  0  0  0
   11.6142   25.9837   37.2774 H   0  0  0  0  0
   11.9666   26.7900   35.0913 H   0  0  0  0  0
   11.2454   22.9301   33.0216 H   0  0  0  0  0
   10.6365   22.9911   34.7049 H   0  0  0  0  0
    9.7910   23.9037   33.4021 H   0  0  0  0  0
   11.9411   20.2458   34.1901 H   0  0  0  0  0
   11.5951   18.9673   35.5331 H   0  0  0  0  0
    9.7654   26.6437   33.6336 H   0  0  0  0  0
    8.8425   28.4461   35.2689 H   0  0  0  0  0
    9.8950   27.8027   36.5674 H   0  0  0  0  0
   10.6211   28.5997   35.1243 H   0  0  0  0  0
    8.7655   24.7411   35.2980 H   0  0  0  0  0
    8.3595   26.1951   36.2808 H   0  0  0  0  0
    7.0361   27.1127   34.5268 H   0  0  0  0  0
    7.6102   25.8674   33.3587 H   0  0  0  0  0
    6.2684   24.3248   34.1148 H   0  0  0  0  0
    6.1421   25.0631   35.7530 H   0  0  0  0  0
    3.6980   26.3829   32.5872 H   0  0  0  0  0
    5.4485   26.7592   32.5422 H   0  0  0  0  0
    4.8794   25.0666   32.3053 H   0  0  0  0  0
    3.7094   24.5494   35.8073 H   0  0  0  0  0
    2.6739   25.1224   34.4630 H   0  0  0  0  0
    3.8468   23.7818   34.1949 H   0  0  0  0  0
   13.5155   16.6833   37.1573 H   0  0  0  0  0
  5  1  1  0  0  0
  4  3  1  0  0  0
  5  4  1  0  0  0
  5  6  1  0  0  0
  6  7  1  0  0  0
  7  8  2  0  0  0
  7 12  1  0  0  0
  8  9  1  0  0  0
  9 10  2  0  0  0
 10 11  1  0  0  0
 10 16  1  0  0  0
 11 13  1  0  0  0
 12  3  1  0  0  0
 12 21  2  0  0  0
 13 14  1  0  0  0
 14 15  1  0  0  0
 15 16  1  0  0  0
 15 19  1  0  0  0
 15 20  1  0  0  0
 16 17  1  0  0  0
 17 18  1  0  0  0
 18 19  1  0  0  0
 19 22  1  0  0  0
 22 23  1  0  0  0
 22 24  1  0  0  0
 24 25  1  0  0  0
 25 26  1  0  0  0
 26 27  1  0  0  0
 27 28  1  0  0  0
 27 29  1  0  0  0
  3 30  1  0  0  0
 27  2  1  0  0  0
  1 31  1  0  0  0
  2 32  1  0  0  0
  3 33  1  0  0  0
  4 34  1  0  0  0
  4 35  1  0  0  0
  5 36  1  0  0  0
  6 37  1  0  0  0
  6 38  1  0  0  0
  8 39  1  0  0  0
  9 40  1  0  0  0
 11 41  1  0  0  0
 11 42  1  0  0  0
 13 43  1  0  0  0
 13 44  1  0  0  0
 14 45  1  0  0  0
 14 46  1  0  0  0
 16 47  1  0  0  0
 17 48  1  0  0  0
 17 49  1  0  0  0
 18 50  1  0  0  0
 18 51  1  0  0  0
 19 52  1  0  0  0
 20 53  1  0  0  0
 20 54  1  0  0  0
 20 55  1  0  0  0
 21 56  1  0  0  0
 21 57  1  0  0  0
 22 58  1  0  0  0
 23 59  1  0  0  0
 23 60  1  0  0  0
 23 61  1  0  0  0
 24 62  1  0  0  0
 24 63  1  0  0  0
 25 64  1  0  0  0
 25 65  1  0  0  0
 26 66  1  0  0  0
 26 67  1  0  0  0
 28 68  1  0  0  0
 28 69  1  0  0  0
 28 70  1  0  0  0
 29 71  1  0  0  0
 29 72  1  0  0  0
 29 73  1  0  0  0
 30 74  1  0  0  0
M  END
$$$$
