### 
### Created by X-TOOL on Mon Oct 24 22:41:26 2005
### 

@<TRIPOS>MOLECULE
1db1_ligand
   74    76     1     0     0
SMALL
GAST_HUCK


@<TRIPOS>ATOM
      1 O2         17.0290   18.0710   34.8190 O.3       1 SUB1       -0.390
      2 O3          4.4890   26.9460   35.0540 O.3       1 SUB1       -0.389
      3 C1         14.1390   17.9530   35.7550 C.3       1 SUB1        0.086
      4 C2         14.8790   16.8930   34.8950 C.3       1 SUB1        0.010
      5 C3         15.9920   17.5340   33.9620 C.3       1 SUB1        0.066
      6 C4         15.3680   18.6720   33.0490 C.3       1 SUB1       -0.002
      7 C5         14.6220   19.7240   33.8640 C.2       1 SUB1       -0.054
      8 C6         14.7970   21.1200   33.7920 C.2       1 SUB1       -0.089
      9 C7         14.1740   22.2860   34.5140 C.2       1 SUB1       -0.079
     10 C8         13.9660   23.4880   34.0420 C.2       1 SUB1       -0.048
     11 C9         14.3540   23.9270   32.5440 C.3       1 SUB1       -0.011
     12 C10        13.6020   19.0750   34.8280 C.2       1 SUB1       -0.040
     13 C11        13.0880   24.4900   31.6710 C.3       1 SUB1       -0.039
     14 C12        12.1470   25.4430   32.5640 C.3       1 SUB1       -0.042
     15 C13        11.7530   24.8970   34.0700 C.3       1 SUB1       -0.013
     16 C14        13.1480   24.5380   34.7770 C.3       1 SUB1        0.006
     17 C15        12.6610   24.2660   36.3500 C.3       1 SUB1       -0.036
     18 C16        11.4290   25.2310   36.4970 C.3       1 SUB1       -0.047
     19 C17        11.2760   25.9340   35.1060 C.3       1 SUB1       -0.030
     20 C18        10.7690   23.5700   33.7790 C.3       1 SUB1       -0.056
     21 C19        12.2910   19.4550   34.8520 C.2       1 SUB1       -0.122
     22 C20         9.8490   26.5460   34.7260 C.3       1 SUB1       -0.040
     23 C21         9.8040   27.9560   35.4820 C.3       1 SUB1       -0.062
     24 C22         8.5750   25.8240   35.2680 C.3       1 SUB1       -0.050
     25 C23         7.3310   26.0600   34.4050 C.3       1 SUB1       -0.050
     26 C24         6.1520   25.2660   34.6720 C.3       1 SUB1       -0.024
     27 C25         4.7750   25.7760   34.3360 C.3       1 SUB1        0.060
     28 C26         4.7010   26.0100   32.8420 C.3       1 SUB1       -0.036
     29 C27         3.6680   24.7300   34.7230 C.3       1 SUB1       -0.036
     30 O1         13.1190   17.3590   36.6200 O.3       1 SUB1       -0.380
     31 H11        17.7097   18.4618   34.2838 H         1 SUB1        0.210
     32 H21         4.5437   26.7661   35.9852 H         1 SUB1        0.210
     33 H31        14.8756   18.4088   36.4330 H         1 SUB1        0.075
     34 H41        15.3682   16.1677   35.5617 H         1 SUB1        0.034
     35 H42        14.1491   16.3788   34.2525 H         1 SUB1        0.034
     36 H51        16.4163   16.7623   33.3029 H         1 SUB1        0.062
     37 H61        16.1759   19.1749   32.4973 H         1 SUB1        0.041
     38 H62        14.6575   18.2181   32.3425 H         1 SUB1        0.041
     39 H81        15.5422   21.4205   33.0570 H         1 SUB1        0.047
     40 H91        13.8624   22.1087   35.5423 H         1 SUB1        0.030
     41 H111       15.1091   24.7253   32.5940 H         1 SUB1        0.049
     42 H112       14.7651   23.0545   32.0153 H         1 SUB1        0.049
     43 H131       13.4630   25.0722   30.8164 H         1 SUB1        0.030
     44 H132       12.4855   23.6426   31.3120 H         1 SUB1        0.030
     45 H141       12.6642   26.4049   32.6951 H         1 SUB1        0.027
     46 H142       11.2035   25.5956   32.0196 H         1 SUB1        0.027
     47 H161       13.7797   25.4383   34.7952 H         1 SUB1        0.053
     48 H171       12.3541   23.2207   36.5020 H         1 SUB1        0.030
     49 H172       13.4499   24.5335   37.0683 H         1 SUB1        0.030
     50 H181       10.5157   24.6645   36.7315 H         1 SUB1        0.027
     51 H182       11.6142   25.9837   37.2774 H         1 SUB1        0.027
     52 H191       11.9666   26.7900   35.0913 H         1 SUB1        0.031
     53 H201       11.2454   22.9301   33.0216 H         1 SUB1        0.024
     54 H202       10.6365   22.9911   34.7049 H         1 SUB1        0.024
     55 H203        9.7910   23.9037   33.4021 H         1 SUB1        0.024
     56 H211       11.9411   20.2458   34.1901 H         1 SUB1        0.019
     57 H212       11.5951   18.9673   35.5331 H         1 SUB1        0.019
     58 H221        9.7654   26.6437   33.6336 H         1 SUB1        0.030
     59 H231        8.8425   28.4461   35.2689 H         1 SUB1        0.023
     60 H232        9.8950   27.8027   36.5674 H         1 SUB1        0.023
     61 H233       10.6211   28.5997   35.1243 H         1 SUB1        0.023
     62 H241        8.7655   24.7411   35.2980 H         1 SUB1        0.027
     63 H242        8.3595   26.1951   36.2808 H         1 SUB1        0.027
     64 H251        7.0361   27.1127   34.5268 H         1 SUB1        0.027
     65 H252        7.6102   25.8674   33.3587 H         1 SUB1        0.027
     66 H261        6.2684   24.3248   34.1148 H         1 SUB1        0.029
     67 H262        6.1421   25.0631   35.7530 H         1 SUB1        0.029
     68 H281        3.6980   26.3829   32.5872 H         1 SUB1        0.026
     69 H282        5.4485   26.7592   32.5422 H         1 SUB1        0.026
     70 H283        4.8794   25.0666   32.3053 H         1 SUB1        0.026
     71 H291        3.7094   24.5494   35.8073 H         1 SUB1        0.026
     72 H292        2.6739   25.1224   34.4630 H         1 SUB1        0.026
     73 H293        3.8468   23.7818   34.1949 H         1 SUB1        0.026
     74 H301       13.5155   16.6833   37.1573 H         1 SUB1        0.213
@<TRIPOS>BOND
     1    5    1 1  
     2    4    3 1  
     3    5    4 1  
     4    5    6 1  
     5    6    7 1  
     6    7    8 2  
     7    7   12 1  
     8    8    9 1  
     9    9   10 2  
    10   10   11 1  
    11   10   16 1  
    12   11   13 1  
    13   12    3 1  
    14   12   21 2  
    15   13   14 1  
    16   14   15 1  
    17   15   16 1  
    18   15   19 1  
    19   15   20 1  
    20   16   17 1  
    21   17   18 1  
    22   18   19 1  
    23   19   22 1  
    24   22   23 1  
    25   22   24 1  
    26   24   25 1  
    27   25   26 1  
    28   26   27 1  
    29   27   28 1  
    30   27   29 1  
    31    3   30 1  
    32   27    2 1  
    33    1   31 1  
    34    2   32 1  
    35    3   33 1  
    36    4   34 1  
    37    4   35 1  
    38    5   36 1  
    39    6   37 1  
    40    6   38 1  
    41    8   39 1  
    42    9   40 1  
    43   11   41 1  
    44   11   42 1  
    45   13   43 1  
    46   13   44 1  
    47   14   45 1  
    48   14   46 1  
    49   16   47 1  
    50   17   48 1  
    51   17   49 1  
    52   18   50 1  
    53   18   51 1  
    54   19   52 1  
    55   20   53 1  
    56   20   54 1  
    57   20   55 1  
    58   21   56 1  
    59   21   57 1  
    60   22   58 1  
    61   23   59 1  
    62   23   60 1  
    63   23   61 1  
    64   24   62 1  
    65   24   63 1  
    66   25   64 1  
    67   25   65 1  
    68   26   66 1  
    69   26   67 1  
    70   28   68 1  
    71   28   69 1  
    72   28   70 1  
    73   29   71 1  
    74   29   72 1  
    75   29   73 1  
    76   30   74 1  
@<TRIPOS>SUBSTRUCTURE
     1 SUB1        1 GROUP

