1igj_ligand
  -I-interpret- 

 81 86  0  0  0  0  0  0  0  0999 V2000
  -12.0989   30.7085   28.8242 H   0  0  0  0  0
  -12.6870   31.2567   30.4305 H   0  0  0  0  0
  -14.3725   30.1988   28.1130 H   0  0  0  0  0
  -14.2981   31.8883   28.7186 H   0  0  0  0  0
  -16.3193   30.7613   29.5536 H   0  0  0  0  0
  -15.4116   28.4387   29.4559 H   0  0  0  0  0
  -16.1126   28.8129   31.0669 H   0  0  0  0  0
  -13.8985   29.3665   31.9119 H   0  0  0  0  0
  -14.8269   27.0992   32.1364 H   0  0  0  0  0
  -13.0340   27.1838   32.2081 H   0  0  0  0  0
  -14.7403   26.3217   29.8248 H   0  0  0  0  0
  -13.7035   25.2729   30.8504 H   0  0  0  0  0
  -11.7280   26.5070   30.1720 H   0  0  0  0  0
  -13.4948   28.1571   28.3750 H   0  0  0  0  0
  -10.4761   28.1020   28.7717 H   0  0  0  0  0
  -11.3811   29.3020   27.7880 H   0  0  0  0  0
  -12.3652   27.4085   26.5010 H   0  0  0  0  0
  -10.4880   28.5492   25.7789 H   0  0  0  0  0
  -13.0193   24.0718   29.6755 H   0  0  0  0  0
  -14.1995   26.2483   27.3445 H   0  0  0  0  0
  -14.3390   24.5439   27.8944 H   0  0  0  0  0
  -13.5285   25.4204   25.3223 H   0  0  0  0  0
  -13.3479   23.7622   25.9890 H   0  0  0  0  0
  -11.3247   25.6540   25.3212 H   0  0  0  0  0
   -9.0954   25.8213   27.3927 H   0  0  0  0  0
   -9.8064   24.5330   28.4228 H   0  0  0  0  0
   -9.7862   26.2344   28.9985 H   0  0  0  0  0
  -11.5512   29.9846   31.7401 H   0  0  0  0  0
  -10.6008   29.4921   30.2976 H   0  0  0  0  0
  -11.2223   28.2458   31.4321 H   0  0  0  0  0
  -12.0273   22.0824   25.6965 H   0  0  0  0  0
  -11.4667   22.3679   27.3790 H   0  0  0  0  0
   -8.9164   24.5226   25.0820 H   0  0  0  0  0
  -16.0923   32.3995   32.7089 H   0  0  0  0  0
  -16.6458   32.9027   29.7253 H   0  0  0  0  0
  -15.5819   33.8974   30.7766 H   0  0  0  0  0
  -17.8745   34.8603   30.4657 H   0  0  0  0  0
  -12.8600   30.5530   29.6030 C   0  0  0  0  0
  -14.2370   30.8280   29.0050 C   0  0  0  0  0
  -15.3450   30.5190   30.0030 C   0  0  0  0  0
  -15.1660   31.2820   31.2080 O   0  0  0  0  0
  -15.2960   29.0440   30.3670 C   0  0  0  0  0
  -13.9590   28.7200   31.0240 C   0  0  0  0  0
  -13.9130   27.2940   31.5560 C   0  0  0  0  0
  -13.8200   26.2810   30.4260 C   0  0  0  0  0
  -12.6190   26.5950   29.5330 C   0  0  0  0  0
  -12.6130   28.0400   29.0220 C   0  0  0  0  0
  -12.7320   29.1170   30.1400 C   0  0  0  0  0
  -11.3790   28.2690   28.1660 C   0  0  0  0  0
  -11.3900   27.3040   26.9990 C   0  0  0  0  0
  -10.3850   27.6410   26.0380 O   0  0  0  0  0
  -11.2700   25.8240   27.4610 C   0  0  0  0  0
  -12.4620   25.5100   28.4310 C   0  0  0  0  0
  -12.2830   24.2320   29.0970 O   0  0  0  0  0
  -13.6570   25.3010   27.4800 C   0  0  0  0  0
  -13.0990   24.8230   26.1400 C   0  0  0  0  0
  -11.5760   25.0010   26.1700 C   0  0  0  0  0
   -9.8900   25.5860   28.1160 C   0  0  0  0  0
  -11.4340   29.2170   30.9610 C   0  0  0  0  0
  -10.7520   23.7710   25.9440 C   0  0  0  0  0
  -11.1790   22.4050   26.3180 C   0  0  0  0  0
  -10.0260   21.5670   26.0760 O   0  0  0  0  0
   -9.5050   23.6880   25.4600 C   0  0  0  0  0
   -9.0660   22.3070   25.5210 C   0  0  0  0  0
   -7.9940   21.8000   25.2150 O   0  0  0  0  0
  -16.2710   32.0600   31.6780 C   0  0  0  0  0
  -16.4780   33.2600   30.7520 C   0  0  0  0  0
  -17.6850   34.0700   31.2070 C   0  0  0  0  0
  -17.4590   34.7030   32.4860 O   0  0  0  0  0
  -18.9040   33.1420   31.2570 C   0  0  0  0  0
  -19.9870   33.8440   31.8870 O   0  0  0  0  0
  -18.6400   31.8370   32.0270 C   0  0  0  0  0
  -17.4280   31.2400   31.6130 O   0  0  0  0  0
  -19.6710   30.7790   31.6820 C   0  0  0  0  0
  -18.2223   35.2163   32.7233 H   0  0  0  0  0
  -19.1883   32.8848   30.2260 H   0  0  0  0  0
  -19.7535   34.0430   32.7861 H   0  0  0  0  0
  -18.6312   32.0440   33.1073 H   0  0  0  0  0
  -19.4562   29.8598   32.2468 H   0  0  0  0  0
  -19.6300   30.5648   30.6038 H   0  0  0  0  0
  -20.6743   31.1451   31.9453 H   0  0  0  0  0
 38  1  1  0  0  0
 38  2  1  0  0  0
 39  3  1  0  0  0
 39  4  1  0  0  0
 40  5  1  0  0  0
 42  6  1  0  0  0
 42  7  1  0  0  0
 43  8  1  0  0  0
 44  9  1  0  0  0
 44 10  1  0  0  0
 45 11  1  0  0  0
 45 12  1  0  0  0
 46 13  1  0  0  0
 47 14  1  0  0  0
 49 15  1  0  0  0
 49 16  1  0  0  0
 50 17  1  0  0  0
 51 18  1  0  0  0
 54 19  1  0  0  0
 55 20  1  0  0  0
 55 21  1  0  0  0
 56 22  1  0  0  0
 56 23  1  0  0  0
 57 24  1  0  0  0
 58 25  1  0  0  0
 58 26  1  0  0  0
 58 27  1  0  0  0
 59 28  1  0  0  0
 59 29  1  0  0  0
 59 30  1  0  0  0
 61 31  1  0  0  0
 61 32  1  0  0  0
 63 33  1  0  0  0
 66 34  1  0  0  0
 67 35  1  0  0  0
 67 36  1  0  0  0
 68 37  1  0  0  0
 69 75  1  0  0  0
 70 76  1  0  0  0
 71 77  1  0  0  0
 72 78  1  0  0  0
 74 79  1  0  0  0
 48 38  1  0  0  0
 38 39  1  0  0  0
 39 40  1  0  0  0
 42 40  1  0  0  0
 40 41  1  0  0  0
 41 66  1  0  0  0
 66 73  1  0  0  0
 66 67  1  0  0  0
 67 68  1  0  0  0
 68 70  1  0  0  0
 68 69  1  0  0  0
 72 70  1  0  0  0
 70 71  1  0  0  0
 72 74  1  0  0  0
 73 72  1  0  0  0
 43 42  1  0  0  0
 48 43  1  0  0  0
 44 43  1  0  0  0
 45 44  1  0  0  0
 46 45  1  0  0  0
 53 46  1  0  0  0
 46 47  1  0  0  0
 49 47  1  0  0  0
 47 48  1  0  0  0
 48 59  1  0  0  0
 50 49  1  0  0  0
 52 50  1  0  0  0
 50 51  1  0  0  0
 52 58  1  0  0  0
 57 52  1  0  0  0
 52 53  1  0  0  0
 55 53  1  0  0  0
 53 54  1  0  0  0
 56 55  1  0  0  0
 57 56  1  0  0  0
 60 57  1  0  0  0
 60 63  2  0  0  0
 60 61  1  0  0  0
 61 62  1  0  0  0
 62 64  1  0  0  0
 64 65  2  0  0  0
 64 63  1  0  0  0
 74 80  1  0  0  0
 74 81  1  0  0  0
M  END
$$$$
