### 
### Created by X-TOOL on Tue Oct 25 02:30:34 2005
### 

@<TRIPOS>MOLECULE
1igj_ligand
   81    86     1     0     0
SMALL
GAST_HUCK


@<TRIPOS>ATOM
      1 H381      -12.0989   30.7085   28.8242 H         1 SUB1        0.027
      2 H382      -12.6870   31.2567   30.4305 H         1 SUB1        0.027
      3 H391      -14.3725   30.1988   28.1130 H         1 SUB1        0.029
      4 H392      -14.2981   31.8883   28.7186 H         1 SUB1        0.029
      5 H401      -16.3193   30.7613   29.5536 H         1 SUB1        0.060
      6 H421      -15.4116   28.4387   29.4559 H         1 SUB1        0.029
      7 H422      -16.1126   28.8129   31.0669 H         1 SUB1        0.029
      8 H431      -13.8985   29.3665   31.9119 H         1 SUB1        0.031
      9 H441      -14.8269   27.0992   32.1364 H         1 SUB1        0.027
     10 H442      -13.0340   27.1838   32.2081 H         1 SUB1        0.027
     11 H451      -14.7403   26.3217   29.8248 H         1 SUB1        0.027
     12 H452      -13.7035   25.2729   30.8504 H         1 SUB1        0.027
     13 H461      -11.7280   26.5070   30.1720 H         1 SUB1        0.033
     14 H471      -13.4948   28.1571   28.3750 H         1 SUB1        0.031
     15 H491      -10.4761   28.1020   28.7717 H         1 SUB1        0.029
     16 H492      -11.3811   29.3020   27.7880 H         1 SUB1        0.029
     17 H501      -12.3652   27.4085   26.5010 H         1 SUB1        0.060
     18 H511      -10.4880   28.5492   25.7789 H         1 SUB1        0.210
     19 H541      -13.0193   24.0718   29.6755 H         1 SUB1        0.210
     20 H551      -14.1995   26.2483   27.3445 H         1 SUB1        0.030
     21 H552      -14.3390   24.5439   27.8944 H         1 SUB1        0.030
     22 H561      -13.5285   25.4204   25.3223 H         1 SUB1        0.030
     23 H562      -13.3479   23.7622   25.9890 H         1 SUB1        0.030
     24 H571      -11.3247   25.6540   25.3212 H         1 SUB1        0.055
     25 H581       -9.0954   25.8213   27.3927 H         1 SUB1        0.024
     26 H582       -9.8064   24.5330   28.4228 H         1 SUB1        0.024
     27 H583       -9.7862   26.2344   28.9985 H         1 SUB1        0.024
     28 H591      -11.5512   29.9846   31.7401 H         1 SUB1        0.023
     29 H592      -10.6008   29.4921   30.2976 H         1 SUB1        0.023
     30 H593      -11.2223   28.2458   31.4321 H         1 SUB1        0.023
     31 H611      -12.0273   22.0824   25.6965 H         1 SUB1        0.086
     32 H612      -11.4667   22.3679   27.3790 H         1 SUB1        0.086
     33 H631       -8.9164   24.5226   25.0820 H         1 SUB1        0.030
     34 H661      -16.0923   32.3995   32.7089 H         1 SUB1        0.091
     35 H671      -16.6458   32.9027   29.7253 H         1 SUB1        0.034
     36 H672      -15.5819   33.8974   30.7766 H         1 SUB1        0.034
     37 H681      -17.8745   34.8603   30.4657 H         1 SUB1        0.062
     38 C1        -12.8600   30.5530   29.6030 C.3       1 SUB1       -0.045
     39 C2        -14.2370   30.8280   29.0050 C.3       1 SUB1       -0.026
     40 C3        -15.3450   30.5190   30.0030 C.3       1 SUB1        0.062
     41 O3        -15.1660   31.2820   31.2080 O.3       1 SUB1       -0.348
     42 C4        -15.2960   29.0440   30.3670 C.3       1 SUB1       -0.023
     43 C5        -13.9590   28.7200   31.0240 C.3       1 SUB1       -0.033
     44 C6        -13.9130   27.2940   31.5560 C.3       1 SUB1       -0.049
     45 C7        -13.8200   26.2810   30.4260 C.3       1 SUB1       -0.047
     46 C8        -12.6190   26.5950   29.5330 C.3       1 SUB1       -0.008
     47 C9        -12.6130   28.0400   29.0220 C.3       1 SUB1       -0.028
     48 C10       -12.7320   29.1170   30.1400 C.3       1 SUB1       -0.026
     49 C11       -11.3790   28.2690   28.1660 C.3       1 SUB1       -0.022
     50 C12       -11.3900   27.3040   26.9990 C.3       1 SUB1        0.066
     51 O12       -10.3850   27.6410   26.0380 O.3       1 SUB1       -0.391
     52 C13       -11.2700   25.8240   27.4610 C.3       1 SUB1        0.041
     53 C14       -12.4620   25.5100   28.4310 C.3       1 SUB1        0.080
     54 O14       -12.2830   24.2320   29.0970 O.3       1 SUB1       -0.387
     55 C15       -13.6570   25.3010   27.4800 C.3       1 SUB1       -0.020
     56 C16       -13.0990   24.8230   26.1400 C.3       1 SUB1       -0.032
     57 C17       -11.5760   25.0010   26.1700 C.3       1 SUB1        0.018
     58 C18        -9.8900   25.5860   28.1160 C.3       1 SUB1       -0.052
     59 C19       -11.4340   29.2170   30.9610 C.3       1 SUB1       -0.059
     60 C20       -10.7520   23.7710   25.9440 C.2       1 SUB1       -0.006
     61 C21       -11.1790   22.4050   26.3180 C.3       1 SUB1        0.120
     62 O21       -10.0260   21.5670   26.0760 O.3       1 SUB1       -0.266
     63 C22        -9.5050   23.6880   25.4600 C.2       1 SUB1        0.002
     64 C23        -9.0660   22.3070   25.5210 C.2       1 SUB1        0.219
     65 O23        -7.9940   21.8000   25.2150 O.2       1 SUB1       -0.387
     66 C1X       -16.2710   32.0600   31.6780 C.3       1 SUB1        0.162
     67 C2X       -16.4780   33.2600   30.7520 C.3       1 SUB1        0.027
     68 C3X       -17.6850   34.0700   31.2070 C.3       1 SUB1        0.088
     69 O3X       -17.4590   34.7030   32.4860 O.3       1 SUB1       -0.389
     70 C4X       -18.9040   33.1420   31.2570 C.3       1 SUB1        0.107
     71 O4X       -19.9870   33.8440   31.8870 O.3       1 SUB1       -0.387
     72 C5X       -18.6400   31.8370   32.0270 C.3       1 SUB1        0.087
     73 O5X       -17.4280   31.2400   31.6130 O.3       1 SUB1       -0.346
     74 C6X       -19.6710   30.7790   31.6820 C.3       1 SUB1       -0.036
     75 H691      -18.2223   35.2163   32.7233 H         1 SUB1        0.210
     76 H701      -19.1883   32.8848   30.2260 H         1 SUB1        0.064
     77 H711      -19.7535   34.0430   32.7861 H         1 SUB1        0.210
     78 H721      -18.6312   32.0440   33.1073 H         1 SUB1        0.062
     79 H741      -19.4562   29.8598   32.2468 H         1 SUB1        0.025
     80 H742      -19.6300   30.5648   30.6038 H         1 SUB1        0.025
     81 H743      -20.6743   31.1451   31.9453 H         1 SUB1        0.025
@<TRIPOS>BOND
     1   38    1 1  
     2   38    2 1  
     3   39    3 1  
     4   39    4 1  
     5   40    5 1  
     6   42    6 1  
     7   42    7 1  
     8   43    8 1  
     9   44    9 1  
    10   44   10 1  
    11   45   11 1  
    12   45   12 1  
    13   46   13 1  
    14   47   14 1  
    15   49   15 1  
    16   49   16 1  
    17   50   17 1  
    18   51   18 1  
    19   54   19 1  
    20   55   20 1  
    21   55   21 1  
    22   56   22 1  
    23   56   23 1  
    24   57   24 1  
    25   58   25 1  
    26   58   26 1  
    27   58   27 1  
    28   59   28 1  
    29   59   29 1  
    30   59   30 1  
    31   61   31 1  
    32   61   32 1  
    33   63   33 1  
    34   66   34 1  
    35   67   35 1  
    36   67   36 1  
    37   68   37 1  
    38   69   75 1  
    39   70   76 1  
    40   71   77 1  
    41   72   78 1  
    42   74   79 1  
    43   48   38 1  
    44   38   39 1  
    45   39   40 1  
    46   42   40 1  
    47   40   41 1  
    48   41   66 1  
    49   66   73 1  
    50   66   67 1  
    51   67   68 1  
    52   68   70 1  
    53   68   69 1  
    54   72   70 1  
    55   70   71 1  
    56   72   74 1  
    57   73   72 1  
    58   43   42 1  
    59   48   43 1  
    60   44   43 1  
    61   45   44 1  
    62   46   45 1  
    63   53   46 1  
    64   46   47 1  
    65   49   47 1  
    66   47   48 1  
    67   48   59 1  
    68   50   49 1  
    69   52   50 1  
    70   50   51 1  
    71   52   58 1  
    72   57   52 1  
    73   52   53 1  
    74   55   53 1  
    75   53   54 1  
    76   56   55 1  
    77   57   56 1  
    78   60   57 1  
    79   60   63 2  
    80   60   61 1  
    81   61   62 1  
    82   62   64 1  
    83   64   65 2  
    84   64   63 1  
    85   74   80 1  
    86   74   81 1  
@<TRIPOS>SUBSTRUCTURE
     1 SUB1        1 GROUP

