### 
### Created by X-TOOL on Mon Oct 24 22:33:56 2005
### 

@<TRIPOS>MOLECULE
1o36_ligand
   54    57     1     0     0
SMALL
GAST_HUCK


@<TRIPOS>ATOM
      1 C1         44.3040   -3.0640   26.2710 C.ar      1 SUB1        0.197
      2 C2         44.6840   -1.6960   26.2610 C.ar      1 SUB1        0.005
      3 C3         44.6520   -0.8960   27.4160 C.ar      1 SUB1       -0.008
      4 C4         44.2350   -1.5020   28.5660 C.ar      1 SUB1        0.118
      5 C5         43.8740   -2.7760   28.6260 C.ar      1 SUB1        0.101
      6 C6         43.8850   -3.6050   27.5140 C.ar      1 SUB1        0.027
      7 C7         44.3500   -3.8360   25.0790 C.cat     1 SUB1        0.316
      8 N1         44.1780   -5.1400   25.0960 N.pl3     1 SUB1       -0.201
      9 N2         44.5680   -3.2230   23.9400 N.pl3     1 SUB1       -0.201
     10 N3         44.1090   -1.0350   29.7590 N.pl3     1 SUB1       -0.222
     11 N4         43.5120   -3.1480   29.8460 N.2       1 SUB1       -0.227
     12 C8         43.6840   -2.0190   30.4880 C.2       1 SUB1        0.207
     13 C1'        43.4220   -1.9020   31.8690 C.ar      1 SUB1        0.140
     14 C2'        43.1040   -3.0060   32.6710 C.ar      1 SUB1        0.006
     15 C3'        42.8430   -2.8800   34.0280 C.ar      1 SUB1        0.061
     16 C31'       42.4670   -4.1250   34.8700 C.3       1 SUB1        0.197
     17 C32'       40.9580   -4.2980   34.6420 C.2       1 SUB1        0.322
     18 O33'       40.5990   -5.1040   33.8060 O.co2     1 SUB1       -0.381
     19 O34'       40.2030   -3.6120   35.3000 O.co2     1 SUB1       -0.381
     20 C42'       42.7830   -3.9810   36.4330 C.3       1 SUB1        0.056
     21 C43'       43.4210   -5.2510   37.1090 C.2       1 SUB1        0.040
     22 O44'       43.2000   -6.3530   36.6280 O.co2     1 SUB1       -0.566
     23 O45'       44.1200   -5.0800   38.1090 O.co2     1 SUB1       -0.566
     24 C4'        42.9110   -1.6360   34.5890 C.ar      1 SUB1       -0.001
     25 C5'        43.2220   -0.4960   33.8670 C.ar      1 SUB1        0.079
     26 C6'        43.4750   -0.6550   32.5080 C.ar      1 SUB1        0.196
     27 O6'        43.7800    0.4470   31.7460 O.3       1 SUB1       -0.273
     28 C1''       43.2790    0.7330   34.5440 C.ar      1 SUB1        0.031
     29 C2''       44.4740    1.4400   34.7030 C.ar      1 SUB1        0.094
     30 C3''       44.5570    2.6350   35.4040 C.ar      1 SUB1       -0.025
     31 C4''       43.4290    3.1780   35.9740 C.ar      1 SUB1       -0.052
     32 C5''       42.2160    2.5230   35.8410 C.ar      1 SUB1       -0.054
     33 C6''       42.1430    1.3170   35.1350 C.ar      1 SUB1       -0.043
     34 N2''       45.6280    1.0830   34.2030 N.2       1 SUB1       -0.216
     35 H21        45.0080   -1.2370   25.3410 H         1 SUB1        0.080
     36 H31        44.9390    0.1420   27.4030 H         1 SUB1        0.062
     37 H61        43.5800   -4.6380   27.6000 H         1 SUB1        0.077
     38 H81        44.0110   -5.5840   25.9910 H         1 SUB1        0.192
     39 H82        44.1620   -5.7640   24.3190 H         1 SUB1        0.192
     40 H91        44.6910   -2.2290   23.9230 H         1 SUB1        0.192
     41 H92        44.6630   -3.7250   23.0820 H         1 SUB1        0.192
     42 H101       44.2760   -0.1180   30.0710 H         1 SUB1        0.236
     43 H141       43.0520   -3.9850   32.2200 H         1 SUB1        0.071
     44 H161       42.9860   -4.9810   34.4660 H         1 SUB1        0.139
     45 H201       43.4510   -3.1510   36.6010 H         1 SUB1        0.062
     46 H202       41.8790   -3.7590   36.9820 H         1 SUB1        0.062
     47 H241       42.7070   -1.5250   35.6420 H         1 SUB1        0.082
     48 HN2A       46.3250    1.7830   34.2150 O.2       1 SUB1       -0.489
     49 HN2B       45.5620    0.5610   33.3770 O.2       1 SUB1       -0.489
     50 H301       45.5020    3.1460   35.5080 H         1 SUB1        0.070
     51 H311       43.4940    4.1100   36.5190 H         1 SUB1        0.065
     52 H321       41.3210    2.9670   36.2530 H         1 SUB1        0.067
     53 H331       41.1830    0.8250   35.0460 H         1 SUB1        0.065
     54 H271       43.9251    0.1783   30.8464 H         1 SUB1        0.288
@<TRIPOS>BOND
     1    1    2 ar 
     2    1    6 ar 
     3    1    7 1  
     4    2    3 ar 
     5    2   35 1  
     6    3    4 ar 
     7    3   36 1  
     8    4    5 ar 
     9    4   10 1  
    10    5    6 ar 
    11    5   11 1  
    12    6   37 1  
    13    7    8 1  
    14    7    9 1  
    15    8   38 1  
    16    8   39 1  
    17    9   40 1  
    18    9   41 1  
    19   10   12 1  
    20   10   42 1  
    21   11   12 2  
    22   12   13 1  
    23   13   14 ar 
    24   13   26 ar 
    25   14   15 ar 
    26   14   43 1  
    27   15   16 1  
    28   15   24 ar 
    29   16   17 1  
    30   16   20 1  
    31   16   44 1  
    32   17   18 2  
    33   17   19 2  
    34   20   21 1  
    35   20   45 1  
    36   20   46 1  
    37   21   22 2  
    38   21   23 2  
    39   24   25 ar 
    40   24   47 1  
    41   25   26 ar 
    42   25   28 1  
    43   26   27 1  
    44   28   29 ar 
    45   28   33 ar 
    46   29   30 ar 
    47   29   34 1  
    48   30   31 ar 
    49   30   50 1  
    50   31   32 ar 
    51   31   51 1  
    52   32   33 ar 
    53   32   52 1  
    54   33   53 1  
    55   34   48 2  
    56   34   49 2  
    57   27   54 1  
@<TRIPOS>SUBSTRUCTURE
     1 SUB1        1 GROUP

