1o36_ligand
  -I-interpret- 

 54 57  0  0  0  0  0  0  0  0999 V2000
   44.3040   -3.0640   26.2710 C   0  0  0  0  0
   44.6840   -1.6960   26.2610 C   0  0  0  0  0
   44.6520   -0.8960   27.4160 C   0  0  0  0  0
   44.2350   -1.5020   28.5660 C   0  0  0  0  0
   43.8740   -2.7760   28.6260 C   0  0  0  0  0
   43.8850   -3.6050   27.5140 C   0  0  0  0  0
   44.3500   -3.8360   25.0790 C   0  3  0  0  0
   44.1780   -5.1400   25.0960 N   0  0  0  0  0
   44.5680   -3.2230   23.9400 N   0  0  0  0  0
   44.1090   -1.0350   29.7590 N   0  0  0  0  0
   43.5120   -3.1480   29.8460 N   0  0  0  0  0
   43.6840   -2.0190   30.4880 C   0  0  0  0  0
   43.4220   -1.9020   31.8690 C   0  0  0  0  0
   43.1040   -3.0060   32.6710 C   0  0  0  0  0
   42.8430   -2.8800   34.0280 C   0  0  0  0  0
   42.4670   -4.1250   34.8700 C   0  0  0  0  0
   40.9580   -4.2980   34.6420 C   0  0  0  0  0
   40.5990   -5.1040   33.8060 O   0  5  0  0  0
   40.2030   -3.6120   35.3000 O   0  0  0  0  0
   42.7830   -3.9810   36.4330 C   0  0  0  0  0
   43.4210   -5.2510   37.1090 C   0  0  0  0  0
   43.2000   -6.3530   36.6280 O   0  0  0  0  0
   44.1200   -5.0800   38.1090 O   0  5  0  0  0
   42.9110   -1.6360   34.5890 C   0  0  0  0  0
   43.2220   -0.4960   33.8670 C   0  0  0  0  0
   43.4750   -0.6550   32.5080 C   0  0  0  0  0
   43.7800    0.4470   31.7460 O   0  0  0  0  0
   43.2790    0.7330   34.5440 C   0  0  0  0  0
   44.4740    1.4400   34.7030 C   0  0  0  0  0
   44.5570    2.6350   35.4040 C   0  0  0  0  0
   43.4290    3.1780   35.9740 C   0  0  0  0  0
   42.2160    2.5230   35.8410 C   0  0  0  0  0
   42.1430    1.3170   35.1350 C   0  0  0  0  0
   45.6280    1.0830   34.2030 N   0  0  0  0  0
   45.0080   -1.2370   25.3410 H   0  0  0  0  0
   44.9390    0.1420   27.4030 H   0  0  0  0  0
   43.5800   -4.6380   27.6000 H   0  0  0  0  0
   44.0110   -5.5840   25.9910 H   0  0  0  0  0
   44.1620   -5.7640   24.3190 H   0  0  0  0  0
   44.6910   -2.2290   23.9230 H   0  0  0  0  0
   44.6630   -3.7250   23.0820 H   0  0  0  0  0
   44.2760   -0.1180   30.0710 H   0  0  0  0  0
   43.0520   -3.9850   32.2200 H   0  0  0  0  0
   42.9860   -4.9810   34.4660 H   0  0  0  0  0
   43.4510   -3.1510   36.6010 H   0  0  0  0  0
   41.8790   -3.7590   36.9820 H   0  0  0  0  0
   42.7070   -1.5250   35.6420 H   0  0  0  0  0
   46.3250    1.7830   34.2150 O   0  0  0  0  0
   45.5620    0.5610   33.3770 O   0  0  0  0  0
   45.5020    3.1460   35.5080 H   0  0  0  0  0
   43.4940    4.1100   36.5190 H   0  0  0  0  0
   41.3210    2.9670   36.2530 H   0  0  0  0  0
   41.1830    0.8250   35.0460 H   0  0  0  0  0
   43.9251    0.1783   30.8464 H   0  0  0  0  0
  1  2  4  0  0  0
  1  6  4  0  0  0
  1  7  1  0  0  0
  2  3  4  0  0  0
  2 35  1  0  0  0
  3  4  4  0  0  0
  3 36  1  0  0  0
  4  5  4  0  0  0
  4 10  1  0  0  0
  5  6  4  0  0  0
  5 11  1  0  0  0
  6 37  1  0  0  0
  7  8  1  0  0  0
  7  9  1  0  0  0
  8 38  1  0  0  0
  8 39  1  0  0  0
  9 40  1  0  0  0
  9 41  1  0  0  0
 10 12  1  0  0  0
 10 42  1  0  0  0
 11 12  2  0  0  0
 12 13  1  0  0  0
 13 14  4  0  0  0
 13 26  4  0  0  0
 14 15  4  0  0  0
 14 43  1  0  0  0
 15 16  1  0  0  0
 15 24  4  0  0  0
 16 17  1  0  0  0
 16 20  1  0  0  0
 16 44  1  0  0  0
 17 18  1  0  0  0
 17 19  2  0  0  0
 20 21  1  0  0  0
 20 45  1  0  0  0
 20 46  1  0  0  0
 21 22  2  0  0  0
 21 23  1  0  0  0
 24 25  4  0  0  0
 24 47  1  0  0  0
 25 26  4  0  0  0
 25 28  1  0  0  0
 26 27  1  0  0  0
 28 29  4  0  0  0
 28 33  4  0  0  0
 29 30  4  0  0  0
 29 34  1  0  0  0
 30 31  4  0  0  0
 30 50  1  0  0  0
 31 32  4  0  0  0
 31 51  1  0  0  0
 32 33  4  0  0  0
 32 52  1  0  0  0
 33 53  1  0  0  0
 34 48  2  0  0  0
 34 49  2  0  0  0
 27 54  1  0  0  0
M  END
$$$$
