1i9m_ligand
  -I-interpret- 

 34 35  0  0  0  0  0  0  0  0999 V2000
   -3.9680    2.8040   14.6740 C   0  0  0  0  0
   -4.3270    1.6720   15.4360 C   0  0  0  0  0
   -5.7060    1.5440   15.8940 C   0  0  0  0  0
   -6.6270    2.5370   15.5880 C   0  0  0  0  0
   -6.2270    3.6780   14.8150 C   0  0  0  0  0
   -4.9050    3.8160   14.3500 C   0  0  0  0  0
   -4.4080    5.0030   13.4890 C   0  0  0  0  0
   -5.2540    5.9000   13.1880 O   0  0  0  0  0
   -3.0020    5.0920   13.0130 N   0  0  0  0  0
   -2.5060    6.2930   12.4110 C   0  0  0  0  0
   -6.0790    0.0920   16.8130 S   0  0  0  0  0
   -5.6260   -1.3670   16.0730 N   0  0  0  0  0
   -7.4590    0.3680   16.9980 O   0  0  0  0  0
   -5.3510    0.4320   18.0720 O   0  0  0  0  0
   -1.7550    7.1970   13.1670 C   0  0  0  0  0
   -1.9520    7.2980   14.6770 C   0  0  0  0  0
   -1.1090    8.2910   15.4010 C   0  0  0  0  0
   -0.1170    9.1450   14.6790 C   0  0  0  0  0
    0.0510    9.0210   13.2010 C   0  0  0  0  0
   -0.7530    8.0620   12.4420 C   0  0  0  0  0
    0.5680    9.9590   15.3070 F   0  0  0  0  0
   -2.7600    6.6110   15.2960 F   0  0  0  0  0
   -2.9459    2.9021   14.3265 H   0  0  0  0  0
   -3.5922    0.9122   15.6764 H   0  0  0  0  0
   -7.6507    2.4501   15.9339 H   0  0  0  0  0
   -6.9554    4.4472   14.5850 H   0  0  0  0  0
   -2.3954    4.3035   13.1145 H   0  0  0  0  0
   -3.3807    6.8439   12.0350 H   0  0  0  0  0
   -1.8743    5.9860   11.5645 H   0  0  0  0  0
   -5.8041   -2.2371   16.5325 H   0  0  0  0  0
   -5.1810   -1.3564   15.1775 H   0  0  0  0  0
   -1.2175    8.3963   16.4744 H   0  0  0  0  0
    0.7729    9.6450   12.6867 H   0  0  0  0  0
   -0.6299    7.9738   11.3686 H   0  0  0  0  0
  1  2  4  0  0  0
  1  6  4  0  0  0
  2  3  4  0  0  0
  3  4  4  0  0  0
  3 11  1  0  0  0
  4  5  4  0  0  0
  5  6  4  0  0  0
  6  7  1  0  0  0
  7  8  2  0  0  0
  7  9  1  0  0  0
  9 10  1  0  0  0
 10 15  1  0  0  0
 11 12  1  0  0  0
 11 13  2  0  0  0
 11 14  2  0  0  0
 15 16  4  0  0  0
 15 20  4  0  0  0
 16 17  4  0  0  0
 16 22  1  0  0  0
 17 18  4  0  0  0
 18 19  4  0  0  0
 18 21  1  0  0  0
 19 20  4  0  0  0
  1 23  1  0  0  0
  2 24  1  0  0  0
  4 25  1  0  0  0
  5 26  1  0  0  0
  9 27  1  0  0  0
 10 28  1  0  0  0
 10 29  1  0  0  0
 12 30  1  0  0  0
 12 31  1  0  0  0
 17 32  1  0  0  0
 19 33  1  0  0  0
 20 34  1  0  0  0
M  END
$$$$
