### 
### Created by X-TOOL on Mon Oct 24 23:06:48 2005
### 

@<TRIPOS>MOLECULE
966c_ligand
   48    50     1     0     0
SMALL
GAST_HUCK


@<TRIPOS>ATOM
      1 H31         7.2082   -7.8384   43.2862 H         1 SUB1        0.059
      2 H41         4.7435   -8.0776   43.1225 H         1 SUB1        0.053
      3 C1          6.7140   -7.7550   42.3250 C.ar      1 SUB1       -0.070
      4 C2          5.3340   -7.8810   42.2350 C.ar      1 SUB1       -0.072
      5 C3          4.7190   -7.7530   41.0000 C.ar      1 SUB1       -0.070
      6 C4          5.4650   -7.5420   39.8360 C.ar      1 SUB1       -0.029
      7 C5          6.8450   -7.4470   39.9210 C.ar      1 SUB1        0.116
      8 C6          7.4640   -7.5190   41.1630 C.ar      1 SUB1       -0.029
      9 O12         7.5780   -7.3090   38.7820 O.3       1 SUB1       -0.258
     10 C13         8.1470   -8.4410   38.1950 C.ar      1 SUB1        0.116
     11 C14         8.1560   -9.7450   38.7750 C.ar      1 SUB1       -0.027
     12 C15         8.7360  -10.8210   38.0880 C.ar      1 SUB1       -0.045
     13 C16         9.2480  -10.6020   36.8260 C.ar      1 SUB1        0.078
     14 C17         9.3280   -9.3170   36.2600 C.ar      1 SUB1       -0.045
     15 C18         8.7630   -8.2400   36.9520 C.ar      1 SUB1       -0.027
     16 S23         9.7950  -12.0130   35.8710 S.o2      1 SUB1        0.000
     17 C24        11.5470  -12.1890   36.1860 C.3       1 SUB1        0.112
     18 O25         9.5630  -11.7280   34.4700 O.2       1 SUB1       -0.170
     19 O26         9.1070  -13.1280   36.4170 O.2       1 SUB1       -0.170
     20 C27        12.3670  -11.0400   35.4610 C.3       1 SUB1        0.064
     21 C28        12.6400   -9.6860   36.2030 C.2       1 SUB1        0.201
     22 O31        12.9450   -9.6110   37.3810 O.2       1 SUB1       -0.397
     23 N32        12.5200   -8.5850   35.4500 N.am      1 SUB1       -0.164
     24 O33        12.6700   -7.2650   35.9480 O.3       1 SUB1       -0.272
     25 C36        11.8130  -13.5790   35.5150 C.3       1 SUB1       -0.002
     26 C37        13.2860  -14.0460   35.7420 C.3       1 SUB1        0.050
     27 O38        13.6120  -13.9490   37.1330 O.3       1 SUB1       -0.380
     28 C39        13.3480  -12.7440   37.8640 C.3       1 SUB1        0.050
     29 C40        11.8640  -12.3560   37.7120 C.3       1 SUB1       -0.002
     30 H51         3.6389   -7.8176   40.9348 H         1 SUB1        0.059
     31 H61         4.9685   -7.4536   38.8764 H         1 SUB1        0.055
     32 H81         8.5381   -7.3914   41.2349 H         1 SUB1        0.055
     33 H111        7.7124   -9.9043   39.7512 H         1 SUB1        0.055
     34 H121        8.7811  -11.8054   38.5397 H         1 SUB1        0.061
     35 H141        9.8182   -9.1638   35.3054 H         1 SUB1        0.061
     36 H151        8.8019   -7.2446   36.5244 H         1 SUB1        0.055
     37 H201       11.8204  -10.7926   34.5391 H         1 SUB1        0.052
     38 H202       13.3484  -11.4644   35.2027 H         1 SUB1        0.052
     39 H231       12.3122   -8.7002   34.4786 H         1 SUB1        0.222
     40 H241       12.5429   -6.6444   35.2402 H         1 SUB1        0.249
     41 H251       11.6257  -13.4969   34.4342 H         1 SUB1        0.031
     42 H252       11.1300  -14.3235   35.9500 H         1 SUB1        0.031
     43 H261       13.9665  -13.4061   35.1611 H         1 SUB1        0.056
     44 H262       13.3939  -15.0900   35.4128 H         1 SUB1        0.056
     45 H281       13.9795  -11.9331   37.4719 H         1 SUB1        0.056
     46 H282       13.5763  -12.9048   38.9280 H         1 SUB1        0.056
     47 H291       11.2285  -13.1460   38.1387 H         1 SUB1        0.031
     48 H292       11.6728  -11.4082   38.2365 H         1 SUB1        0.031
@<TRIPOS>BOND
     1    3    8 ar 
     2    3    4 ar 
     3    4    5 ar 
     4    5    6 ar 
     5    6    7 ar 
     6    7    9 1  
     7    7    8 ar 
     8    9   10 1  
     9   10   15 ar 
    10   10   11 ar 
    11   11   12 ar 
    12   12   13 ar 
    13   13   16 1  
    14   13   14 ar 
    15   14   15 ar 
    16   16   19 2  
    17   16   18 2  
    18   16   17 1  
    19   17   29 1  
    20   17   25 1  
    21   17   20 1  
    22    3    1 1  
    23    4    2 1  
    24   20   21 1  
    25   21   23 am 
    26   21   22 2  
    27   23   24 1  
    28    5   30 1  
    29    6   31 1  
    30   25   26 1  
    31    8   32 1  
    32   11   33 1  
    33   26   27 1  
    34   27   28 1  
    35   12   34 1  
    36   14   35 1  
    37   28   29 1  
    38   15   36 1  
    39   20   37 1  
    40   20   38 1  
    41   23   39 1  
    42   24   40 1  
    43   25   41 1  
    44   25   42 1  
    45   26   43 1  
    46   26   44 1  
    47   28   45 1  
    48   28   46 1  
    49   29   47 1  
    50   29   48 1  
@<TRIPOS>SUBSTRUCTURE
     1 SUB1        1 GROUP

