966c_ligand
  -I-interpret- 

 48 50  0  0  0  0  0  0  0  0999 V2000
    7.2082   -7.8384   43.2862 H   0  0  0  0  0
    4.7435   -8.0776   43.1225 H   0  0  0  0  0
    6.7140   -7.7550   42.3250 C   0  0  0  0  0
    5.3340   -7.8810   42.2350 C   0  0  0  0  0
    4.7190   -7.7530   41.0000 C   0  0  0  0  0
    5.4650   -7.5420   39.8360 C   0  0  0  0  0
    6.8450   -7.4470   39.9210 C   0  0  0  0  0
    7.4640   -7.5190   41.1630 C   0  0  0  0  0
    7.5780   -7.3090   38.7820 O   0  0  0  0  0
    8.1470   -8.4410   38.1950 C   0  0  0  0  0
    8.1560   -9.7450   38.7750 C   0  0  0  0  0
    8.7360  -10.8210   38.0880 C   0  0  0  0  0
    9.2480  -10.6020   36.8260 C   0  0  0  0  0
    9.3280   -9.3170   36.2600 C   0  0  0  0  0
    8.7630   -8.2400   36.9520 C   0  0  0  0  0
    9.7950  -12.0130   35.8710 S   0  0  0  0  0
   11.5470  -12.1890   36.1860 C   0  0  0  0  0
    9.5630  -11.7280   34.4700 O   0  0  0  0  0
    9.1070  -13.1280   36.4170 O   0  0  0  0  0
   12.3670  -11.0400   35.4610 C   0  0  0  0  0
   12.6400   -9.6860   36.2030 C   0  0  0  0  0
   12.9450   -9.6110   37.3810 O   0  0  0  0  0
   12.5200   -8.5850   35.4500 N   0  0  0  0  0
   12.6700   -7.2650   35.9480 O   0  0  0  0  0
   11.8130  -13.5790   35.5150 C   0  0  0  0  0
   13.2860  -14.0460   35.7420 C   0  0  0  0  0
   13.6120  -13.9490   37.1330 O   0  0  0  0  0
   13.3480  -12.7440   37.8640 C   0  0  0  0  0
   11.8640  -12.3560   37.7120 C   0  0  0  0  0
    3.6389   -7.8176   40.9348 H   0  0  0  0  0
    4.9685   -7.4536   38.8764 H   0  0  0  0  0
    8.5381   -7.3914   41.2349 H   0  0  0  0  0
    7.7124   -9.9043   39.7512 H   0  0  0  0  0
    8.7811  -11.8054   38.5397 H   0  0  0  0  0
    9.8182   -9.1638   35.3054 H   0  0  0  0  0
    8.8019   -7.2446   36.5244 H   0  0  0  0  0
   11.8204  -10.7926   34.5391 H   0  0  0  0  0
   13.3484  -11.4644   35.2027 H   0  0  0  0  0
   12.3122   -8.7002   34.4786 H   0  0  0  0  0
   12.5429   -6.6444   35.2402 H   0  0  0  0  0
   11.6257  -13.4969   34.4342 H   0  0  0  0  0
   11.1300  -14.3235   35.9500 H   0  0  0  0  0
   13.9665  -13.4061   35.1611 H   0  0  0  0  0
   13.3939  -15.0900   35.4128 H   0  0  0  0  0
   13.9795  -11.9331   37.4719 H   0  0  0  0  0
   13.5763  -12.9048   38.9280 H   0  0  0  0  0
   11.2285  -13.1460   38.1387 H   0  0  0  0  0
   11.6728  -11.4082   38.2365 H   0  0  0  0  0
  3  8  4  0  0  0
  3  4  4  0  0  0
  4  5  4  0  0  0
  5  6  4  0  0  0
  6  7  4  0  0  0
  7  9  1  0  0  0
  7  8  4  0  0  0
  9 10  1  0  0  0
 10 15  4  0  0  0
 10 11  4  0  0  0
 11 12  4  0  0  0
 12 13  4  0  0  0
 13 16  1  0  0  0
 13 14  4  0  0  0
 14 15  4  0  0  0
 16 19  2  0  0  0
 16 18  2  0  0  0
 16 17  1  0  0  0
 17 29  1  0  0  0
 17 25  1  0  0  0
 17 20  1  0  0  0
  3  1  1  0  0  0
  4  2  1  0  0  0
 20 21  1  0  0  0
 21 23  1  0  0  0
 21 22  2  0  0  0
 23 24  1  0  0  0
  5 30  1  0  0  0
  6 31  1  0  0  0
 25 26  1  0  0  0
  8 32  1  0  0  0
 11 33  1  0  0  0
 26 27  1  0  0  0
 27 28  1  0  0  0
 12 34  1  0  0  0
 14 35  1  0  0  0
 28 29  1  0  0  0
 15 36  1  0  0  0
 20 37  1  0  0  0
 20 38  1  0  0  0
 23 39  1  0  0  0
 24 40  1  0  0  0
 25 41  1  0  0  0
 25 42  1  0  0  0
 26 43  1  0  0  0
 26 44  1  0  0  0
 28 45  1  0  0  0
 28 46  1  0  0  0
 29 47  1  0  0  0
 29 48  1  0  0  0
M  END
$$$$
