### 
### Created by X-TOOL on Mon Oct 24 21:52:42 2005
### 

@<TRIPOS>MOLECULE
1v0k_ligand
   37    38     1     0     0
SMALL
GAST_HUCK


@<TRIPOS>ATOM
      1 C1B         6.9510   14.3080   16.2390 C.3       1 SUB1        0.188
      2 C2B         6.6490   12.8540   16.5340 C.3       1 SUB1        0.134
      3 C3B         5.1640   12.5920   16.4250 C.3       1 SUB1        0.114
      4 C4B         4.3650   13.6260   17.2050 C.3       1 SUB1        0.107
      5 C5B         4.8510   15.0410   16.8710 C.3       1 SUB1        0.079
      6 O2B         7.3670   12.0160   15.6490 O.3       1 SUB1       -0.384
      7 O3B         4.8660   11.2850   16.9300 O.3       1 SUB1       -0.386
      8 O4B         2.9790   13.5040   16.9300 O.3       1 SUB1       -0.387
      9 O5B         6.2350   15.1230   17.1020 O.3       1 SUB1       -0.346
     10 C1         10.5050   17.8500   15.1270 C.3       1 SUB1        0.025
     11 C2         10.4270   17.5610   16.6600 C.3       1 SUB1        0.096
     12 O2         11.6490   17.8820   17.2970 O.3       1 SUB1       -0.388
     13 C3         10.0360   16.0930   16.9450 C.3       1 SUB1        0.109
     14 O3          9.7700   15.9130   18.3270 O.3       1 SUB1       -0.387
     15 C4          8.7650   15.8020   16.1520 C.3       1 SUB1        0.102
     16 O4          8.3330   14.4750   16.4650 O.3       1 SUB1       -0.342
     17 C5          9.0620   15.9670   14.6640 C.3       1 SUB1        0.025
     18 N5          9.3080   17.3940   14.3990 N.3       1 SUB1       -0.311
     19 H11         6.6967   14.5520   15.1970 H         1 SUB1        0.094
     20 H21         6.9683   12.6315   17.5628 H         1 SUB1        0.067
     21 H31         4.8728   12.6438   15.3655 H         1 SUB1        0.065
     22 H41         4.5227   13.4479   18.2790 H         1 SUB1        0.064
     23 H51         4.3283   15.7692   17.5085 H         1 SUB1        0.059
     24 H52         4.6411   15.2618   15.8140 H         1 SUB1        0.059
     25 H61         8.2967   12.1937   15.7306 H         1 SUB1        0.210
     26 H71         5.3639   10.6379   16.4443 H         1 SUB1        0.210
     27 H81         2.6917   12.6234   17.1413 H         1 SUB1        0.210
     28 H101       11.3846   17.3329   14.7160 H         1 SUB1        0.045
     29 H102       10.6147   18.9344   14.9788 H         1 SUB1        0.045
     30 H111        9.6435   18.2064   17.0836 H         1 SUB1        0.063
     31 H121       11.5781   17.6985   18.2265 H         1 SUB1        0.210
     32 H131       10.8460   15.4181   16.6314 H         1 SUB1        0.065
     33 H141        9.5314   15.0075   18.4871 H         1 SUB1        0.210
     34 H151        7.9775   16.5138   16.4404 H         1 SUB1        0.064
     35 H171        8.2017   15.6214   14.0721 H         1 SUB1        0.045
     36 H172        9.9521   15.3796   14.3947 H         1 SUB1        0.045
     37 H181        9.4586   17.5388   13.3394 H         1 SUB1        0.122
@<TRIPOS>BOND
     1    1    2 1  
     2    1    9 1  
     3   16    1 1  
     4    2    3 1  
     5    2    6 1  
     6    3    4 1  
     7    3    7 1  
     8    5    4 1  
     9    4    8 1  
    10    9    5 1  
    11   11   10 1  
    12   10   18 1  
    13   11   12 1  
    14   13   11 1  
    15   13   14 1  
    16   15   13 1  
    17   15   16 1  
    18   15   17 1  
    19   17   18 1  
    20    1   19 1  
    21    2   20 1  
    22    3   21 1  
    23    4   22 1  
    24    5   23 1  
    25    5   24 1  
    26    6   25 1  
    27    7   26 1  
    28    8   27 1  
    29   10   28 1  
    30   10   29 1  
    31   11   30 1  
    32   12   31 1  
    33   13   32 1  
    34   14   33 1  
    35   15   34 1  
    36   17   35 1  
    37   17   36 1  
    38   18   37 1  
@<TRIPOS>SUBSTRUCTURE
     1 SUB1        1 GROUP

