1v0k_ligand
  -I-interpret- 

 37 38  0  0  0  0  0  0  0  0999 V2000
    6.9510   14.3080   16.2390 C   0  0  0  0  0
    6.6490   12.8540   16.5340 C   0  0  0  0  0
    5.1640   12.5920   16.4250 C   0  0  0  0  0
    4.3650   13.6260   17.2050 C   0  0  0  0  0
    4.8510   15.0410   16.8710 C   0  0  0  0  0
    7.3670   12.0160   15.6490 O   0  0  0  0  0
    4.8660   11.2850   16.9300 O   0  0  0  0  0
    2.9790   13.5040   16.9300 O   0  0  0  0  0
    6.2350   15.1230   17.1020 O   0  0  0  0  0
   10.5050   17.8500   15.1270 C   0  0  0  0  0
   10.4270   17.5610   16.6600 C   0  0  0  0  0
   11.6490   17.8820   17.2970 O   0  0  0  0  0
   10.0360   16.0930   16.9450 C   0  0  0  0  0
    9.7700   15.9130   18.3270 O   0  0  0  0  0
    8.7650   15.8020   16.1520 C   0  0  0  0  0
    8.3330   14.4750   16.4650 O   0  0  0  0  0
    9.0620   15.9670   14.6640 C   0  0  0  0  0
    9.3080   17.3940   14.3990 N   0  0  0  0  0
    6.6967   14.5520   15.1970 H   0  0  0  0  0
    6.9683   12.6315   17.5628 H   0  0  0  0  0
    4.8728   12.6438   15.3655 H   0  0  0  0  0
    4.5227   13.4479   18.2790 H   0  0  0  0  0
    4.3283   15.7692   17.5085 H   0  0  0  0  0
    4.6411   15.2618   15.8140 H   0  0  0  0  0
    8.2967   12.1937   15.7306 H   0  0  0  0  0
    5.3639   10.6379   16.4443 H   0  0  0  0  0
    2.6917   12.6234   17.1413 H   0  0  0  0  0
   11.3846   17.3329   14.7160 H   0  0  0  0  0
   10.6147   18.9344   14.9788 H   0  0  0  0  0
    9.6435   18.2064   17.0836 H   0  0  0  0  0
   11.5781   17.6985   18.2265 H   0  0  0  0  0
   10.8460   15.4181   16.6314 H   0  0  0  0  0
    9.5314   15.0075   18.4871 H   0  0  0  0  0
    7.9775   16.5138   16.4404 H   0  0  0  0  0
    8.2017   15.6214   14.0721 H   0  0  0  0  0
    9.9521   15.3796   14.3947 H   0  0  0  0  0
    9.4586   17.5388   13.3394 H   0  0  0  0  0
  1  2  1  0  0  0
  1  9  1  0  0  0
 16  1  1  0  0  0
  2  3  1  0  0  0
  2  6  1  0  0  0
  3  4  1  0  0  0
  3  7  1  0  0  0
  5  4  1  0  0  0
  4  8  1  0  0  0
  9  5  1  0  0  0
 11 10  1  0  0  0
 10 18  1  0  0  0
 11 12  1  0  0  0
 13 11  1  0  0  0
 13 14  1  0  0  0
 15 13  1  0  0  0
 15 16  1  0  0  0
 15 17  1  0  0  0
 17 18  1  0  0  0
  1 19  1  0  0  0
  2 20  1  0  0  0
  3 21  1  0  0  0
  4 22  1  0  0  0
  5 23  1  0  0  0
  5 24  1  0  0  0
  6 25  1  0  0  0
  7 26  1  0  0  0
  8 27  1  0  0  0
 10 28  1  0  0  0
 10 29  1  0  0  0
 11 30  1  0  0  0
 12 31  1  0  0  0
 13 32  1  0  0  0
 14 33  1  0  0  0
 15 34  1  0  0  0
 17 35  1  0  0  0
 17 36  1  0  0  0
 18 37  1  0  0  0
M  END
$$$$
