### 
### Created by X-TOOL on Mon Oct 24 23:44:27 2005
### 

@<TRIPOS>MOLECULE
1epo_ligand
   95    97     1     0     0
SMALL
GAST_HUCK


@<TRIPOS>ATOM
      1 H581       33.0281   -5.9081   -3.7001 H         1 SUB1        0.188
      2 H591       35.4903   -6.9916   -2.5597 H         1 SUB1        0.082
      3 H621       34.5846   -5.5659   -0.4939 H         1 SUB1        0.047
      4 H622       33.1619   -5.1773   -1.5194 H         1 SUB1        0.047
      5 H641       36.8640   -5.4249   -2.0448 H         1 SUB1        0.056
      6 H651       33.2909   -3.1415   -2.7116 H         1 SUB1        0.056
      7 H661       38.2357   -3.7358   -3.2137 H         1 SUB1        0.060
      8 H671       34.6585   -1.4740   -3.8897 H         1 SUB1        0.060
      9 H681       37.0566   -1.7114   -4.1711 H         1 SUB1        0.056
     10 H941       36.5172  -11.6052    7.2896 H         1 SUB1        0.185
     11 H511       30.1200   -7.1133   -5.6745 H         1 SUB1        0.058
     12 H512       30.3070   -5.5917   -6.6107 H         1 SUB1        0.058
     13 H521       31.8071   -5.9486   -4.6959 H         1 SUB1        0.054
     14 H522       32.5490   -5.5350   -6.2786 H         1 SUB1        0.054
     15 H541       33.2360   -9.4188   -6.2826 H         1 SUB1        0.054
     16 H542       33.5175   -8.1279   -7.4995 H         1 SUB1        0.054
     17 H551       31.4920   -9.3056   -8.0645 H         1 SUB1        0.058
     18 H552       30.8524   -9.0770   -6.4016 H         1 SUB1        0.058
     19 H691       35.7838   -8.2592   -0.7277 H         1 SUB1        0.188
     20 H701       33.4188   -9.4466    0.7100 H         1 SUB1        0.080
     21 H731       35.5292  -11.0755   -0.8724 H         1 SUB1        0.031
     22 H732       33.7903  -10.9431   -1.3028 H         1 SUB1        0.031
     23 H741       33.5913  -11.7814    1.2488 H         1 SUB1        0.027
     24 H742       35.1608  -12.5278    0.7946 H         1 SUB1        0.027
     25 H751       32.4311  -13.0106   -0.3789 H         1 SUB1        0.026
     26 H752       33.4858  -14.1425    0.5340 H         1 SUB1        0.026
     27 H761       33.4309  -14.6697   -1.8237 H         1 SUB1        0.023
     28 H762       35.0702  -14.1496   -1.3055 H         1 SUB1        0.023
     29 H763       34.0156  -13.0177   -2.2183 H         1 SUB1        0.023
     30 H771       34.2444   -8.7701    2.6466 H         1 SUB1        0.186
     31 H781       37.1036   -9.3433    3.3388 H         1 SUB1        0.061
     32 H791       37.5858   -7.3454    4.2392 H         1 SUB1        0.029
     33 H792       35.8814   -6.7844    4.1555 H         1 SUB1        0.029
     34 H801       36.1758   -6.9105    1.6791 H         1 SUB1        0.030
     35 H811       38.0709   -8.0669    1.3948 H         1 SUB1        0.027
     36 H812       39.0176   -6.9451    2.4302 H         1 SUB1        0.027
     37 H821       37.3682   -4.7706    3.3675 H         1 SUB1        0.027
     38 H822       35.7406   -4.8934    2.6173 H         1 SUB1        0.027
     39 H831       38.0285   -6.5243   -0.3991 H         1 SUB1        0.026
     40 H832       39.7136   -6.5532    0.2224 H         1 SUB1        0.026
     41 H841       37.3935   -3.2848    1.5613 H         1 SUB1        0.026
     42 H842       36.5589   -4.4478    0.4763 H         1 SUB1        0.026
     43 H851       38.7702   -4.2226   -0.2221 H         1 SUB1        0.026
     44 H852       39.3912   -4.4905    1.4420 H         1 SUB1        0.026
     45 H871       34.0793   -9.1077    6.0828 H         1 SUB1        0.213
     46 H881       36.5294   -7.9752    5.9792 H         1 SUB1        0.213
     47 H951       38.6131  -12.6323    7.8861 H         1 SUB1        0.049
     48 H952       39.3084  -11.7330    6.4953 H         1 SUB1        0.049
     49 H953       38.5842  -13.3573    6.2429 H         1 SUB1        0.049
     50 O1         30.9720   -7.3220   -7.5670 O.3       1 SUB1       -0.376
     51 C2         30.7770   -6.5530   -6.3560 C.3       1 SUB1        0.068
     52 C3         32.0090   -6.3100   -5.7150 C.3       1 SUB1        0.058
     53 N4         32.8370   -7.4660   -5.6290 N.am      1 SUB1       -0.255
     54 C5         32.8620   -8.4650   -6.6830 C.3       1 SUB1        0.058
     55 C6         31.4860   -8.6410   -7.1880 C.3       1 SUB1        0.068
     56 C          33.6370   -7.6200   -4.5270 C.2       1 SUB1        0.262
     57 O          34.3590   -8.5990   -4.4530 O.2       1 SUB1       -0.400
     58 N          33.6170   -6.7070   -3.5780 N.am      1 SUB1       -0.250
     59 CA         34.4320   -6.8050   -2.3250 C.3       1 SUB1        0.141
     60 C          33.8580   -7.8980   -1.3780 C.2       1 SUB1        0.206
     61 O          32.7320   -8.1850   -1.2680 O.2       1 SUB1       -0.394
     62 CB         34.2260   -5.4560   -1.5280 C.3       1 SUB1        0.021
     63 CG         35.0450   -4.3950   -2.2620 C.ar      1 SUB1       -0.039
     64 CD1        36.3830   -4.5380   -2.4410 C.ar      1 SUB1       -0.060
     65 CD2        34.3630   -3.2670   -2.8110 C.ar      1 SUB1       -0.060
     66 CE1        37.1650   -3.6050   -3.1060 C.ar      1 SUB1       -0.069
     67 CE2        35.1440   -2.3490   -3.4730 C.ar      1 SUB1       -0.069
     68 CZ         36.4990   -2.4730   -3.6380 C.ar      1 SUB1       -0.069
     69 N          34.8240   -8.5260   -0.6400 N.am      1 SUB1       -0.264
     70 CA         34.4240   -9.6120    0.2950 C.3       1 SUB1        0.131
     71 C          35.5270   -9.6380    1.4140 C.2       1 SUB1        0.202
     72 O          36.5960  -10.1450    1.1750 O.2       1 SUB1       -0.394
     73 CB         34.5110  -10.9620   -0.4720 C.3       1 SUB1       -0.012
     74 CG         34.2020  -12.1490    0.4110 C.3       1 SUB1       -0.049
     75 CD         33.4710  -13.3180   -0.1940 C.3       1 SUB1       -0.056
     76 CE         34.0330  -13.8210   -1.4670 C.3       1 SUB1       -0.065
     77 N          35.1960   -9.0450    2.5090 N.am      1 SUB1       -0.277
     78 CA         36.2070   -8.7560    3.5860 C.3       1 SUB1        0.101
     79 CB         36.6660   -7.3540    3.6360 C.3       1 SUB1       -0.022
     80 CG         36.9750   -6.6040    2.3700 C.3       1 SUB1       -0.039
     81 CD1        38.2070   -7.0160    1.6900 C.3       1 SUB1       -0.050
     82 CD2        36.8100   -5.1140    2.4840 C.3       1 SUB1       -0.050
     83 CE1        38.6760   -6.2700    0.4530 C.3       1 SUB1       -0.053
     84 CE2        37.3100   -4.3430    1.2730 C.3       1 SUB1       -0.053
     85 CZ         38.6020   -4.7580    0.7240 C.3       1 SUB1       -0.053
     86 CH         35.6750   -9.3170    4.9050 C.3       1 SUB1        0.261
     87 OH1        34.3640   -8.7570    5.2470 O.3       1 SUB1       -0.359
     88 OH2        36.5070   -8.9240    5.9360 O.3       1 SUB1       -0.359
     89 CM         35.5910  -10.8480    4.9370 C.3       1 SUB1        0.377
     90 F1         35.1040  -11.2960    3.8410 F         1 SUB1       -0.195
     91 F2         34.7100  -11.2810    5.8530 F         1 SUB1       -0.195
     92 C          36.9100  -11.4650    5.2600 C.2       1 SUB1        0.271
     93 O          37.7810  -11.8210    4.4160 O.2       1 SUB1       -0.338
     94 N          37.1720  -11.7830    6.5550 N.am      1 SUB1       -0.284
     95 CH3        38.5090  -12.4190    6.8120 C.3       1 SUB1        0.020
@<TRIPOS>BOND
     1   58    1 1  
     2   59    2 1  
     3   62    3 1  
     4   62    4 1  
     5   64    5 1  
     6   65    6 1  
     7   66    7 1  
     8   67    8 1  
     9   68    9 1  
    10   94   10 1  
    11   51   11 1  
    12   51   12 1  
    13   52   13 1  
    14   52   14 1  
    15   54   15 1  
    16   54   16 1  
    17   55   17 1  
    18   55   18 1  
    19   69   19 1  
    20   70   20 1  
    21   73   21 1  
    22   73   22 1  
    23   74   23 1  
    24   74   24 1  
    25   75   25 1  
    26   75   26 1  
    27   76   27 1  
    28   76   28 1  
    29   76   29 1  
    30   77   30 1  
    31   78   31 1  
    32   79   32 1  
    33   79   33 1  
    34   80   34 1  
    35   81   35 1  
    36   81   36 1  
    37   82   37 1  
    38   82   38 1  
    39   83   39 1  
    40   83   40 1  
    41   84   41 1  
    42   84   42 1  
    43   85   43 1  
    44   85   44 1  
    45   87   45 1  
    46   88   46 1  
    47   95   47 1  
    48   95   48 1  
    49   95   49 1  
    50   59   58 1  
    51   59   62 1  
    52   60   59 1  
    53   60   61 2  
    54   62   63 1  
    55   63   64 ar 
    56   63   65 ar 
    57   65   67 ar 
    58   67   68 ar 
    59   66   68 ar 
    60   64   66 ar 
    61   94   95 1  
    62   51   50 1  
    63   55   50 1  
    64   52   51 1  
    65   53   52 1  
    66   53   54 1  
    67   56   53 am 
    68   54   55 1  
    69   56   57 2  
    70   58   56 am 
    71   69   60 am 
    72   70   69 1  
    73   71   70 1  
    74   70   73 1  
    75   71   72 2  
    76   77   71 am 
    77   73   74 1  
    78   74   75 1  
    79   75   76 1  
    80   78   77 1  
    81   78   79 1  
    82   86   78 1  
    83   79   80 1  
    84   80   81 1  
    85   80   82 1  
    86   81   83 1  
    87   82   84 1  
    88   83   85 1  
    89   84   85 1  
    90   86   87 1  
    91   86   88 1  
    92   89   86 1  
    93   89   90 1  
    94   89   91 1  
    95   92   89 1  
    96   92   93 2  
    97   92   94 am 
@<TRIPOS>SUBSTRUCTURE
     1 SUB1        1 GROUP

