1epo_ligand
  -I-interpret- 

 95 97  0  0  0  0  0  0  0  0999 V2000
   33.0281   -5.9081   -3.7001 H   0  0  0  0  0
   35.4903   -6.9916   -2.5597 H   0  0  0  0  0
   34.5846   -5.5659   -0.4939 H   0  0  0  0  0
   33.1619   -5.1773   -1.5194 H   0  0  0  0  0
   36.8640   -5.4249   -2.0448 H   0  0  0  0  0
   33.2909   -3.1415   -2.7116 H   0  0  0  0  0
   38.2357   -3.7358   -3.2137 H   0  0  0  0  0
   34.6585   -1.4740   -3.8897 H   0  0  0  0  0
   37.0566   -1.7114   -4.1711 H   0  0  0  0  0
   36.5172  -11.6052    7.2896 H   0  0  0  0  0
   30.1200   -7.1133   -5.6745 H   0  0  0  0  0
   30.3070   -5.5917   -6.6107 H   0  0  0  0  0
   31.8071   -5.9486   -4.6959 H   0  0  0  0  0
   32.5490   -5.5350   -6.2786 H   0  0  0  0  0
   33.2360   -9.4188   -6.2826 H   0  0  0  0  0
   33.5175   -8.1279   -7.4995 H   0  0  0  0  0
   31.4920   -9.3056   -8.0645 H   0  0  0  0  0
   30.8524   -9.0770   -6.4016 H   0  0  0  0  0
   35.7838   -8.2592   -0.7277 H   0  0  0  0  0
   33.4188   -9.4466    0.7100 H   0  0  0  0  0
   35.5292  -11.0755   -0.8724 H   0  0  0  0  0
   33.7903  -10.9431   -1.3028 H   0  0  0  0  0
   33.5913  -11.7814    1.2488 H   0  0  0  0  0
   35.1608  -12.5278    0.7946 H   0  0  0  0  0
   32.4311  -13.0106   -0.3789 H   0  0  0  0  0
   33.4858  -14.1425    0.5340 H   0  0  0  0  0
   33.4309  -14.6697   -1.8237 H   0  0  0  0  0
   35.0702  -14.1496   -1.3055 H   0  0  0  0  0
   34.0156  -13.0177   -2.2183 H   0  0  0  0  0
   34.2444   -8.7701    2.6466 H   0  0  0  0  0
   37.1036   -9.3433    3.3388 H   0  0  0  0  0
   37.5858   -7.3454    4.2392 H   0  0  0  0  0
   35.8814   -6.7844    4.1555 H   0  0  0  0  0
   36.1758   -6.9105    1.6791 H   0  0  0  0  0
   38.0709   -8.0669    1.3948 H   0  0  0  0  0
   39.0176   -6.9451    2.4302 H   0  0  0  0  0
   37.3682   -4.7706    3.3675 H   0  0  0  0  0
   35.7406   -4.8934    2.6173 H   0  0  0  0  0
   38.0285   -6.5243   -0.3991 H   0  0  0  0  0
   39.7136   -6.5532    0.2224 H   0  0  0  0  0
   37.3935   -3.2848    1.5613 H   0  0  0  0  0
   36.5589   -4.4478    0.4763 H   0  0  0  0  0
   38.7702   -4.2226   -0.2221 H   0  0  0  0  0
   39.3912   -4.4905    1.4420 H   0  0  0  0  0
   34.0793   -9.1077    6.0828 H   0  0  0  0  0
   36.5294   -7.9752    5.9792 H   0  0  0  0  0
   38.6131  -12.6323    7.8861 H   0  0  0  0  0
   39.3084  -11.7330    6.4953 H   0  0  0  0  0
   38.5842  -13.3573    6.2429 H   0  0  0  0  0
   30.9720   -7.3220   -7.5670 O   0  0  0  0  0
   30.7770   -6.5530   -6.3560 C   0  0  0  0  0
   32.0090   -6.3100   -5.7150 C   0  0  0  0  0
   32.8370   -7.4660   -5.6290 N   0  0  0  0  0
   32.8620   -8.4650   -6.6830 C   0  0  0  0  0
   31.4860   -8.6410   -7.1880 C   0  0  0  0  0
   33.6370   -7.6200   -4.5270 C   0  0  0  0  0
   34.3590   -8.5990   -4.4530 O   0  0  0  0  0
   33.6170   -6.7070   -3.5780 N   0  0  0  0  0
   34.4320   -6.8050   -2.3250 C   0  0  0  0  0
   33.8580   -7.8980   -1.3780 C   0  0  0  0  0
   32.7320   -8.1850   -1.2680 O   0  0  0  0  0
   34.2260   -5.4560   -1.5280 C   0  0  0  0  0
   35.0450   -4.3950   -2.2620 C   0  0  0  0  0
   36.3830   -4.5380   -2.4410 C   0  0  0  0  0
   34.3630   -3.2670   -2.8110 C   0  0  0  0  0
   37.1650   -3.6050   -3.1060 C   0  0  0  0  0
   35.1440   -2.3490   -3.4730 C   0  0  0  0  0
   36.4990   -2.4730   -3.6380 C   0  0  0  0  0
   34.8240   -8.5260   -0.6400 N   0  0  0  0  0
   34.4240   -9.6120    0.2950 C   0  0  0  0  0
   35.5270   -9.6380    1.4140 C   0  0  0  0  0
   36.5960  -10.1450    1.1750 O   0  0  0  0  0
   34.5110  -10.9620   -0.4720 C   0  0  0  0  0
   34.2020  -12.1490    0.4110 C   0  0  0  0  0
   33.4710  -13.3180   -0.1940 C   0  0  0  0  0
   34.0330  -13.8210   -1.4670 C   0  0  0  0  0
   35.1960   -9.0450    2.5090 N   0  0  0  0  0
   36.2070   -8.7560    3.5860 C   0  0  0  0  0
   36.6660   -7.3540    3.6360 C   0  0  0  0  0
   36.9750   -6.6040    2.3700 C   0  0  0  0  0
   38.2070   -7.0160    1.6900 C   0  0  0  0  0
   36.8100   -5.1140    2.4840 C   0  0  0  0  0
   38.6760   -6.2700    0.4530 C   0  0  0  0  0
   37.3100   -4.3430    1.2730 C   0  0  0  0  0
   38.6020   -4.7580    0.7240 C   0  0  0  0  0
   35.6750   -9.3170    4.9050 C   0  0  0  0  0
   34.3640   -8.7570    5.2470 O   0  0  0  0  0
   36.5070   -8.9240    5.9360 O   0  0  0  0  0
   35.5910  -10.8480    4.9370 C   0  0  0  0  0
   35.1040  -11.2960    3.8410 F   0  0  0  0  0
   34.7100  -11.2810    5.8530 F   0  0  0  0  0
   36.9100  -11.4650    5.2600 C   0  0  0  0  0
   37.7810  -11.8210    4.4160 O   0  0  0  0  0
   37.1720  -11.7830    6.5550 N   0  0  0  0  0
   38.5090  -12.4190    6.8120 C   0  0  0  0  0
 58  1  1  0  0  0
 59  2  1  0  0  0
 62  3  1  0  0  0
 62  4  1  0  0  0
 64  5  1  0  0  0
 65  6  1  0  0  0
 66  7  1  0  0  0
 67  8  1  0  0  0
 68  9  1  0  0  0
 94 10  1  0  0  0
 51 11  1  0  0  0
 51 12  1  0  0  0
 52 13  1  0  0  0
 52 14  1  0  0  0
 54 15  1  0  0  0
 54 16  1  0  0  0
 55 17  1  0  0  0
 55 18  1  0  0  0
 69 19  1  0  0  0
 70 20  1  0  0  0
 73 21  1  0  0  0
 73 22  1  0  0  0
 74 23  1  0  0  0
 74 24  1  0  0  0
 75 25  1  0  0  0
 75 26  1  0  0  0
 76 27  1  0  0  0
 76 28  1  0  0  0
 76 29  1  0  0  0
 77 30  1  0  0  0
 78 31  1  0  0  0
 79 32  1  0  0  0
 79 33  1  0  0  0
 80 34  1  0  0  0
 81 35  1  0  0  0
 81 36  1  0  0  0
 82 37  1  0  0  0
 82 38  1  0  0  0
 83 39  1  0  0  0
 83 40  1  0  0  0
 84 41  1  0  0  0
 84 42  1  0  0  0
 85 43  1  0  0  0
 85 44  1  0  0  0
 87 45  1  0  0  0
 88 46  1  0  0  0
 95 47  1  0  0  0
 95 48  1  0  0  0
 95 49  1  0  0  0
 59 58  1  0  0  0
 59 62  1  0  0  0
 60 59  1  0  0  0
 60 61  2  0  0  0
 62 63  1  0  0  0
 63 64  4  0  0  0
 63 65  4  0  0  0
 65 67  4  0  0  0
 67 68  4  0  0  0
 66 68  4  0  0  0
 64 66  4  0  0  0
 94 95  1  0  0  0
 51 50  1  0  0  0
 55 50  1  0  0  0
 52 51  1  0  0  0
 53 52  1  0  0  0
 53 54  1  0  0  0
 56 53  1  0  0  0
 54 55  1  0  0  0
 56 57  2  0  0  0
 58 56  1  0  0  0
 69 60  1  0  0  0
 70 69  1  0  0  0
 71 70  1  0  0  0
 70 73  1  0  0  0
 71 72  2  0  0  0
 77 71  1  0  0  0
 73 74  1  0  0  0
 74 75  1  0  0  0
 75 76  1  0  0  0
 78 77  1  0  0  0
 78 79  1  0  0  0
 86 78  1  0  0  0
 79 80  1  0  0  0
 80 81  1  0  0  0
 80 82  1  0  0  0
 81 83  1  0  0  0
 82 84  1  0  0  0
 83 85  1  0  0  0
 84 85  1  0  0  0
 86 87  1  0  0  0
 86 88  1  0  0  0
 89 86  1  0  0  0
 89 90  1  0  0  0
 89 91  1  0  0  0
 92 89  1  0  0  0
 92 93  2  0  0  0
 92 94  1  0  0  0
M  END
$$$$
