### 
### Created by X-TOOL on Mon Oct 24 22:53:37 2005
### 

@<TRIPOS>MOLECULE
1vyf_ligand
   53    52     1     0     0
SMALL
GAST_HUCK


@<TRIPOS>ATOM
      1 C1         16.9920   31.2630    6.3800 C.2       1 SUB1        0.028
      2 O1         17.7850   32.1150    6.7500 O.co2     1 SUB1       -0.567
      3 O2         17.0370   30.9660    5.0900 O.co2     1 SUB1       -0.567
      4 C2         16.0230   30.4770    7.2640 C.3       1 SUB1       -0.014
      5 C3         15.4320   31.1480    8.5150 C.3       1 SUB1       -0.041
      6 C4         13.8910   30.9830    8.6210 C.3       1 SUB1       -0.050
      7 C5         13.3540   30.2580    9.8630 C.3       1 SUB1       -0.053
      8 C6         11.9490   29.6720    9.6640 C.3       1 SUB1       -0.052
      9 C7         10.7980   30.6320    9.9340 C.3       1 SUB1       -0.046
     10 C8         10.3790   31.4310    8.7030 C.3       1 SUB1       -0.036
     11 C9          8.9180   31.2450    8.3660 C.2       1 SUB1       -0.099
     12 C10         8.3520   31.7600    7.2640 C.2       1 SUB1       -0.099
     13 C11         9.1040   32.5700    6.2270 C.3       1 SUB1       -0.036
     14 C12         8.3200   33.8070    5.7830 C.3       1 SUB1       -0.046
     15 C13         8.8930   34.4630    4.5180 C.3       1 SUB1       -0.052
     16 C14        10.2260   35.1930    4.7200 C.3       1 SUB1       -0.053
     17 C15        11.4490   34.3300    4.3850 C.3       1 SUB1       -0.053
     18 C16        12.7280   34.8900    5.0180 C.3       1 SUB1       -0.053
     19 C17        13.4420   33.8780    5.9210 C.3       1 SUB1       -0.056
     20 C18        14.4360   33.0810    5.1130 C.3       1 SUB1       -0.065
     21 H41        16.5568   29.5775    7.6044 H         1 SUB1        0.048
     22 H42        15.1757   30.1818    6.6277 H         1 SUB1        0.048
     23 H51        15.6681   32.2218    8.4816 H         1 SUB1        0.030
     24 H52        15.8948   30.6983    9.4058 H         1 SUB1        0.030
     25 H61        13.5554   30.4209    7.7371 H         1 SUB1        0.027
     26 H62        13.4472   31.9894    8.6059 H         1 SUB1        0.027
     27 H71        13.3186   30.9740   10.6973 H         1 SUB1        0.026
     28 H72        14.0423   29.4373   10.1131 H         1 SUB1        0.026
     29 H81        11.8404   28.8125   10.3418 H         1 SUB1        0.027
     30 H82        11.8683   29.3297    8.6218 H         1 SUB1        0.027
     31 H91        11.1079   31.3371   10.7193 H         1 SUB1        0.029
     32 H92         9.9326   30.0503   10.2842 H         1 SUB1        0.029
     33 H101       10.9841   31.1019    7.8453 H         1 SUB1        0.039
     34 H102       10.5643   32.4982    8.8945 H         1 SUB1        0.039
     35 H111        8.2964   30.6669    9.0482 H         1 SUB1        0.045
     36 H121        7.2888   31.5856    7.1052 H         1 SUB1        0.045
     37 H131        9.2916   31.9349    5.3487 H         1 SUB1        0.039
     38 H132       10.0633   32.8937    6.6571 H         1 SUB1        0.039
     39 H141        8.3389   34.5446    6.5988 H         1 SUB1        0.029
     40 H142        7.2804   33.5089    5.5822 H         1 SUB1        0.029
     41 H151        8.1569   35.1912    4.1467 H         1 SUB1        0.027
     42 H152        9.0442   33.6771    3.7634 H         1 SUB1        0.027
     43 H161       10.2969   35.5049    5.7724 H         1 SUB1        0.026
     44 H162       10.2385   36.0821    4.0724 H         1 SUB1        0.026
     45 H171       11.5756   34.2996    3.2927 H         1 SUB1        0.026
     46 H172       11.2807   33.3109    4.7632 H         1 SUB1        0.026
     47 H181       12.4640   35.7719    5.6201 H         1 SUB1        0.026
     48 H182       13.4160   35.1881    4.2132 H         1 SUB1        0.026
     49 H191       12.7003   33.1960    6.3623 H         1 SUB1        0.026
     50 H192       13.9703   34.4140    6.7232 H         1 SUB1        0.026
     51 H201       14.9441   32.3573    5.7673 H         1 SUB1        0.023
     52 H202       15.1793   33.7613    4.6718 H         1 SUB1        0.023
     53 H203       13.9093   32.5432    4.3109 H         1 SUB1        0.023
@<TRIPOS>BOND
     1    1    2 2  
     2    1    3 2  
     3    1    4 1  
     4    4    5 1  
     5    5    6 1  
     6    6    7 1  
     7    7    8 1  
     8    8    9 1  
     9    9   10 1  
    10   10   11 1  
    11   11   12 2  
    12   12   13 1  
    13   13   14 1  
    14   14   15 1  
    15   15   16 1  
    16   16   17 1  
    17   17   18 1  
    18   18   19 1  
    19   19   20 1  
    20    4   21 1  
    21    4   22 1  
    22    5   23 1  
    23    5   24 1  
    24    6   25 1  
    25    6   26 1  
    26    7   27 1  
    27    7   28 1  
    28    8   29 1  
    29    8   30 1  
    30    9   31 1  
    31    9   32 1  
    32   10   33 1  
    33   10   34 1  
    34   11   35 1  
    35   12   36 1  
    36   13   37 1  
    37   13   38 1  
    38   14   39 1  
    39   14   40 1  
    40   15   41 1  
    41   15   42 1  
    42   16   43 1  
    43   16   44 1  
    44   17   45 1  
    45   17   46 1  
    46   18   47 1  
    47   18   48 1  
    48   19   49 1  
    49   19   50 1  
    50   20   51 1  
    51   20   52 1  
    52   20   53 1  
@<TRIPOS>SUBSTRUCTURE
     1 SUB1        1 GROUP

