1fzj_ligand
  -I-interpret- 

135136  0  0  0  0  0  0  0  0999 V2000
   49.2160   56.7600    4.6750 N   0  3  0  0  0
   47.9330   57.4080    4.2530 C   0  0  0  0  0
   47.6710   57.1250    2.7910 C   0  0  0  0  0
   48.5920   57.0920    1.9780 O   0  0  0  0  0
   47.9960   58.9360    4.4610 C   0  0  0  0  0
   48.2580   59.3730    5.9010 C   0  0  0  0  0
   47.9460   60.8660    6.0850 C   0  0  0  0  0
   46.5090   61.1130    5.9680 N   0  0  0  0  0
   45.9430   62.3170    5.9140 C   0  3  0  0  0
   46.6920   63.4130    5.9680 N   0  0  0  0  0
   44.6240   62.4200    5.7890 N   0  0  0  0  0
   46.4030   56.9490    2.4590 N   0  0  0  0  0
   46.0280   56.6550    1.0930 C   0  0  0  0  0
   45.8950   57.8530    0.1790 C   0  0  0  0  0
   45.9150   59.0130    0.6140 O   0  0  0  0  0
   45.7650   57.5500   -1.1010 N   0  0  0  0  0
   45.6370   58.5540   -2.1360 C   0  0  0  0  0
   44.1740   58.9050   -2.3360 C   0  0  0  0  0
   43.2970   58.1450   -1.9430 O   0  0  0  0  0
   46.2230   57.9890   -3.4250 C   0  0  0  0  0
   46.1860   58.9120   -4.6140 C   0  0  0  0  0
   46.8760   60.1260   -4.6030 C   0  0  0  0  0
   45.5200   58.5410   -5.7780 C   0  0  0  0  0
   46.9150   60.9390   -5.7280 C   0  0  0  0  0
   45.5490   59.3500   -6.9140 C   0  0  0  0  0
   46.2550   60.5490   -6.8800 C   0  0  0  0  0
   46.3170   61.3300   -8.0170 O   0  0  0  0  0
   43.9110   60.0800   -2.9070 N   0  0  0  0  0
   42.5430   60.4940   -3.2150 C   0  0  0  0  0
   42.4010   60.1090   -4.6920 C   0  0  0  0  0
   42.9400   60.7740   -5.5850 O   0  0  0  0  0
   42.3450   62.0230   -3.0410 C   0  0  0  0  0
   40.9530   62.4230   -3.5370 C   0  0  0  0  0
   42.5130   62.4060   -1.5690 C   0  0  0  0  0
   41.6920   59.0130   -4.9500 N   0  0  0  0  0
   41.5540   58.5130   -6.3100 C   0  0  0  0  0
   40.8050   59.4060   -7.2880 C   0  0  0  0  0
   39.8140   60.0450   -6.9380 O   0  0  0  0  0
   40.9250   57.1050   -6.2890 C   0  0  0  0  0
   41.6890   56.1590   -5.3810 C   0  0  0  0  0
   41.2710   55.9290   -4.0770 C   0  0  0  0  0
   42.8750   55.5610   -5.8070 C   0  0  0  0  0
   42.0200   55.1250   -3.2090 C   0  0  0  0  0
   43.6320   54.7560   -4.9470 C   0  0  0  0  0
   43.2000   54.5450   -3.6560 C   0  0  0  0  0
   43.9390   53.7620   -2.7920 O   0  0  0  0  0
   41.2920   59.4040   -8.5220 N   0  0  0  0  0
   40.7270   60.1850   -9.6170 C   0  0  0  0  0
   39.6660   59.3900  -10.3760 C   0  0  0  0  0
   39.8220   58.1790  -10.5920 O   0  0  0  0  0
   41.8500   60.5910  -10.5710 C   0  0  0  0  0
   42.9270   61.4120   -9.8910 C   0  0  0  0  0
   42.3770   62.7110   -9.3350 C   0  0  0  0  0
   41.8310   63.5300  -10.0790 O   0  0  0  0  0
   42.5080   62.9050   -8.0230 N   0  0  0  0  0
   38.6040   60.0840  -10.7810 N   0  0  0  0  0
   37.5130   59.4720  -11.5190 C   0  0  0  0  0
   37.9160   58.8360  -12.8380 C   0  0  0  0  0
   38.8180   59.3220  -13.5200 O   0  0  0  0  0
   37.2340   57.7490  -13.2020 N   0  0  0  0  0
   37.5200   57.0260  -14.4450 C   0  0  0  0  0
   36.7880   57.5990  -15.6640 C   0  0  0  0  0
   35.7830   58.3160  -15.4700 O   0  0  0  0  0
   37.1300   55.5430  -14.2820 C   0  0  0  0  0
   37.8010   54.7720  -13.1380 C   0  0  0  0  0
   37.2700   53.3210  -13.1230 C   0  0  0  0  0
   39.3090   54.7770  -13.3260 C   0  0  0  0  0
   37.2020   57.2920  -16.8070 O   0  5  0  0  0
   49.6177   56.2687    3.8919 H   0  0  0  0  0
   47.1105   56.9960    4.8562 H   0  0  0  0  0
   47.0348   59.3653    4.1420 H   0  0  0  0  0
   48.8034   59.3350    3.8294 H   0  0  0  0  0
   49.3153   59.1931    6.1455 H   0  0  0  0  0
   47.6201   58.7855    6.5776 H   0  0  0  0  0
   48.4754   61.4432    5.3127 H   0  0  0  0  0
   48.2874   61.1861    7.0805 H   0  0  0  0  0
   45.8875   60.2928    5.9240 H   0  0  0  0  0
   47.7155   63.3337    6.0520 H   0  0  0  0  0
   46.2492   64.3420    5.9258 H   0  0  0  0  0
   44.0440   61.5706    5.7343 H   0  0  0  0  0
   44.1817   63.3492    5.7468 H   0  0  0  0  0
   45.6944   57.0200    3.1611 H   0  0  0  0  0
   46.7930   55.9885    0.6681 H   0  0  0  0  0
   45.0588   56.1351    1.1126 H   0  0  0  0  0
   45.7546   56.5858   -1.3658 H   0  0  0  0  0
   46.1909   59.4585   -1.8444 H   0  0  0  0  0
   45.6592   57.0806   -3.6838 H   0  0  0  0  0
   47.2737   57.7261   -3.2328 H   0  0  0  0  0
   47.3897   60.4389   -3.7012 H   0  0  0  0  0
   44.9694   57.6076   -5.8024 H   0  0  0  0  0
   47.4603   61.8755   -5.7039 H   0  0  0  0  0
   45.0267   59.0478   -7.8145 H   0  0  0  0  0
   45.8126   60.9196   -8.7096 H   0  0  0  0  0
   44.6682   60.6939   -3.1304 H   0  0  0  0  0
   41.8173   59.9553   -2.5880 H   0  0  0  0  0
   43.1029   62.5531   -3.6364 H   0  0  0  0  0
   40.8572   62.1706   -4.6034 H   0  0  0  0  0
   40.8129   63.5057   -3.4025 H   0  0  0  0  0
   40.1887   61.8801   -2.9616 H   0  0  0  0  0
   41.7589   61.8802   -0.9650 H   0  0  0  0  0
   42.3814   63.4922   -1.4554 H   0  0  0  0  0
   43.5194   62.1210   -1.2285 H   0  0  0  0  0
   41.2474   58.5256   -4.1985 H   0  0  0  0  0
   42.5753   58.4133   -6.7061 H   0  0  0  0  0
   40.9290   56.6981   -7.3110 H   0  0  0  0  0
   39.8883   57.1836   -5.9297 H   0  0  0  0  0
   40.3498   56.3792   -3.7252 H   0  0  0  0  0
   43.2171   55.7225   -6.8229 H   0  0  0  0  0
   41.6805   54.9562   -2.1935 H   0  0  0  0  0
   44.5525   54.3015   -5.2950 H   0  0  0  0  0
   44.7117   53.4395   -3.2409 H   0  0  0  0  0
   42.0918   58.8348   -8.7124 H   0  0  0  0  0
   40.2600   61.0909   -9.2032 H   0  0  0  0  0
   41.4185   61.1857  -11.3896 H   0  0  0  0  0
   42.3090   59.6799  -10.9822 H   0  0  0  0  0
   43.7144   61.6432  -10.6235 H   0  0  0  0  0
   43.3552   60.8242   -9.0657 H   0  0  0  0  0
   42.9518   62.2105   -7.4567 H   0  0  0  0  0
   42.1625   63.7451   -7.6048 H   0  0  0  0  0
   38.5561   61.0602  -10.5697 H   0  0  0  0  0
   37.0659   58.6920  -10.8852 H   0  0  0  0  0
   36.7629   60.2489  -11.7284 H   0  0  0  0  0
   36.5027   57.4159  -12.6068 H   0  0  0  0  0
   38.6017   57.0908  -14.6339 H   0  0  0  0  0
   37.3799   55.0282  -15.2214 H   0  0  0  0  0
   36.0430   55.5009  -14.1188 H   0  0  0  0  0
   37.5565   55.2566  -12.1812 H   0  0  0  0  0
   36.1819   53.3304  -12.9620 H   0  0  0  0  0
   37.7560   52.7610  -12.3105 H   0  0  0  0  0
   37.4941   52.8386  -14.0858 H   0  0  0  0  0
   39.5613   54.2883  -14.2786 H   0  0  0  0  0
   39.7837   54.2315  -12.4971 H   0  0  0  0  0
   39.6736   55.8147  -13.3384 H   0  0  0  0  0
   49.0336   56.1088    5.4224 H   0  0  0  0  0
   49.8601   57.4665    4.9946 H   0  0  0  0  0
  3  2  1  0  0  0
  2  5  1  0  0  0
  2  1  1  0  0  0
  5  6  1  0  0  0
  6  7  1  0  0  0
  7  8  1  0  0  0
  8  9  1  0  0  0
  9 10  1  0  0  0
  9 11  1  0  0  0
  3  4  2  0  0  0
 14 13  1  0  0  0
 13 12  1  0  0  0
 14 15  2  0  0  0
 18 17  1  0  0  0
 17 20  1  0  0  0
 17 16  1  0  0  0
 20 21  1  0  0  0
 21 23  4  0  0  0
 21 22  4  0  0  0
 22 24  4  0  0  0
 24 26  4  0  0  0
 26 27  1  0  0  0
 25 26  4  0  0  0
 23 25  4  0  0  0
 18 19  2  0  0  0
 30 29  1  0  0  0
 29 32  1  0  0  0
 29 28  1  0  0  0
 32 33  1  0  0  0
 32 34  1  0  0  0
 30 31  2  0  0  0
 37 36  1  0  0  0
 36 39  1  0  0  0
 36 35  1  0  0  0
 39 40  1  0  0  0
 40 42  4  0  0  0
 40 41  4  0  0  0
 41 43  4  0  0  0
 43 45  4  0  0  0
 45 46  1  0  0  0
 44 45  4  0  0  0
 42 44  4  0  0  0
 37 38  2  0  0  0
 49 48  1  0  0  0
 48 51  1  0  0  0
 48 47  1  0  0  0
 51 52  1  0  0  0
 52 53  1  0  0  0
 53 54  2  0  0  0
 53 55  1  0  0  0
 49 50  2  0  0  0
 58 57  1  0  0  0
 57 56  1  0  0  0
 58 59  2  0  0  0
 61 62  1  0  0  0
 61 64  1  0  0  0
 60 61  1  0  0  0
 64 65  1  0  0  0
 65 67  1  0  0  0
 65 66  1  0  0  0
 62 68  1  0  0  0
 62 63  2  0  0  0
 12  3  1  0  0  0
 16 14  1  0  0  0
 28 18  1  0  0  0
 35 30  1  0  0  0
 47 37  1  0  0  0
 56 49  1  0  0  0
 58 60  1  0  0  0
  1 69  1  0  0  0
  2 70  1  0  0  0
  5 71  1  0  0  0
  5 72  1  0  0  0
  6 73  1  0  0  0
  6 74  1  0  0  0
  7 75  1  0  0  0
  7 76  1  0  0  0
  8 77  1  0  0  0
 10 78  1  0  0  0
 10 79  1  0  0  0
 11 80  1  0  0  0
 11 81  1  0  0  0
 12 82  1  0  0  0
 13 83  1  0  0  0
 13 84  1  0  0  0
 16 85  1  0  0  0
 17 86  1  0  0  0
 20 87  1  0  0  0
 20 88  1  0  0  0
 22 89  1  0  0  0
 23 90  1  0  0  0
 24 91  1  0  0  0
 25 92  1  0  0  0
 27 93  1  0  0  0
 28 94  1  0  0  0
 29 95  1  0  0  0
 32 96  1  0  0  0
 33 97  1  0  0  0
 33 98  1  0  0  0
 33 99  1  0  0  0
 34100  1  0  0  0
 34101  1  0  0  0
 34102  1  0  0  0
 35103  1  0  0  0
 36104  1  0  0  0
 39105  1  0  0  0
 39106  1  0  0  0
 41107  1  0  0  0
 42108  1  0  0  0
 43109  1  0  0  0
 44110  1  0  0  0
 46111  1  0  0  0
 47112  1  0  0  0
 48113  1  0  0  0
 51114  1  0  0  0
 51115  1  0  0  0
 52116  1  0  0  0
 52117  1  0  0  0
 55118  1  0  0  0
 55119  1  0  0  0
 56120  1  0  0  0
 57121  1  0  0  0
 57122  1  0  0  0
 60123  1  0  0  0
 61124  1  0  0  0
 64125  1  0  0  0
 64126  1  0  0  0
 65127  1  0  0  0
 66128  1  0  0  0
 66129  1  0  0  0
 66130  1  0  0  0
 67131  1  0  0  0
 67132  1  0  0  0
 67133  1  0  0  0
  1134  1  0  0  0
  1135  1  0  0  0
M  END
$$$$
