### 
### Created by X-TOOL on Mon Oct 24 23:07:17 2005
### 

@<TRIPOS>MOLECULE
1fzj_ligand
  135   136     1     0     0
SMALL
GAST_HUCK


@<TRIPOS>ATOM
      1 N          49.2160   56.7600    4.6750 N.4       1 SUB1        0.238
      2 CA         47.9330   57.4080    4.2530 C.3       1 SUB1        0.065
      3 C          47.6710   57.1250    2.7910 C.2       1 SUB1        0.227
      4 O          48.5920   57.0920    1.9780 O.2       1 SUB1       -0.391
      5 CB         47.9960   58.9360    4.4610 C.3       1 SUB1        0.009
      6 CG         48.2580   59.3730    5.9010 C.3       1 SUB1       -0.026
      7 CD         47.9460   60.8660    6.0850 C.3       1 SUB1        0.051
      8 NE         46.5090   61.1130    5.9680 N.pl3     1 SUB1       -0.170
      9 CZ         45.9430   62.3170    5.9140 C.cat     1 SUB1        0.387
     10 NH1        46.6920   63.4130    5.9680 N.pl3     1 SUB1       -0.183
     11 NH2        44.6240   62.4200    5.7890 N.pl3     1 SUB1       -0.183
     12 N          46.4030   56.9490    2.4590 N.am      1 SUB1       -0.264
     13 CA         46.0280   56.6550    1.0930 C.3       1 SUB1        0.120
     14 C          45.8950   57.8530    0.1790 C.2       1 SUB1        0.201
     15 O          45.9150   59.0130    0.6140 O.2       1 SUB1       -0.395
     16 N          45.7650   57.5500   -1.1010 N.am      1 SUB1       -0.262
     17 CA         45.6370   58.5540   -2.1360 C.3       1 SUB1        0.139
     18 C          44.1740   58.9050   -2.3360 C.2       1 SUB1        0.206
     19 O          43.2970   58.1450   -1.9430 O.2       1 SUB1       -0.394
     20 CB         46.2230   57.9890   -3.4250 C.3       1 SUB1        0.016
     21 CG         46.1860   58.9120   -4.6140 C.ar      1 SUB1       -0.049
     22 CD1        46.8760   60.1260   -4.6030 C.ar      1 SUB1       -0.068
     23 CD2        45.5200   58.5410   -5.7780 C.ar      1 SUB1       -0.068
     24 CE1        46.9150   60.9390   -5.7280 C.ar      1 SUB1       -0.040
     25 CE2        45.5490   59.3500   -6.9140 C.ar      1 SUB1       -0.040
     26 CZ         46.2550   60.5490   -6.8800 C.ar      1 SUB1        0.080
     27 OH         46.3170   61.3300   -8.0170 O.3       1 SUB1       -0.338
     28 N          43.9110   60.0800   -2.9070 N.am      1 SUB1       -0.263
     29 CA         42.5430   60.4940   -3.2150 C.3       1 SUB1        0.133
     30 C          42.4010   60.1090   -4.6920 C.2       1 SUB1        0.204
     31 O          42.9400   60.7740   -5.5850 O.2       1 SUB1       -0.394
     32 CB         42.3450   62.0230   -3.0410 C.3       1 SUB1       -0.006
     33 CG1        40.9530   62.4230   -3.5370 C.3       1 SUB1       -0.058
     34 CG2        42.5130   62.4060   -1.5690 C.3       1 SUB1       -0.058
     35 N          41.6920   59.0130   -4.9500 N.am      1 SUB1       -0.262
     36 CA         41.5540   58.5130   -6.3100 C.3       1 SUB1        0.139
     37 C          40.8050   59.4060   -7.2880 C.2       1 SUB1        0.206
     38 O          39.8140   60.0450   -6.9380 O.2       1 SUB1       -0.394
     39 CB         40.9250   57.1050   -6.2890 C.3       1 SUB1        0.016
     40 CG         41.6890   56.1590   -5.3810 C.ar      1 SUB1       -0.049
     41 CD1        41.2710   55.9290   -4.0770 C.ar      1 SUB1       -0.068
     42 CD2        42.8750   55.5610   -5.8070 C.ar      1 SUB1       -0.068
     43 CE1        42.0200   55.1250   -3.2090 C.ar      1 SUB1       -0.040
     44 CE2        43.6320   54.7560   -4.9470 C.ar      1 SUB1       -0.040
     45 CZ         43.2000   54.5450   -3.6560 C.ar      1 SUB1        0.080
     46 OH         43.9390   53.7620   -2.7920 O.3       1 SUB1       -0.338
     47 N          41.2920   59.4040   -8.5220 N.am      1 SUB1       -0.263
     48 CA         40.7270   60.1850   -9.6170 C.3       1 SUB1        0.133
     49 C          39.6660   59.3900  -10.3760 C.2       1 SUB1        0.204
     50 O          39.8220   58.1790  -10.5920 O.2       1 SUB1       -0.394
     51 CB         41.8500   60.5910  -10.5710 C.3       1 SUB1        0.004
     52 CG         42.9270   61.4120   -9.8910 C.3       1 SUB1        0.041
     53 CD         42.3770   62.7110   -9.3350 C.2       1 SUB1        0.174
     54 OE1        41.8310   63.5300  -10.0790 O.2       1 SUB1       -0.397
     55 NE2        42.5080   62.9050   -8.0230 N.am      1 SUB1       -0.301
     56 N          38.6040   60.0840  -10.7810 N.am      1 SUB1       -0.266
     57 CA         37.5130   59.4720  -11.5190 C.3       1 SUB1        0.120
     58 C          37.9160   58.8360  -12.8380 C.2       1 SUB1        0.202
     59 O          38.8180   59.3220  -13.5200 O.2       1 SUB1       -0.395
     60 N          37.2340   57.7490  -13.2020 N.am      1 SUB1       -0.269
     61 CA         37.5200   57.0260  -14.4450 C.3       1 SUB1        0.082
     62 C          36.7880   57.5990  -15.6640 C.2       1 SUB1        0.053
     63 O          35.7830   58.3160  -15.4700 O.co2     1 SUB1       -0.564
     64 CB         37.1300   55.5430  -14.2820 C.3       1 SUB1       -0.016
     65 CG         37.8010   54.7720  -13.1380 C.3       1 SUB1       -0.042
     66 CD1        37.2700   53.3210  -13.1230 C.3       1 SUB1       -0.062
     67 CD2        39.3090   54.7770  -13.3260 C.3       1 SUB1       -0.062
     68 OXT        37.2020   57.2920  -16.8070 O.co2     1 SUB1       -0.564
     69 H11        49.6177   56.2687    3.8919 H         1 SUB1        0.201
     70 H21        47.1105   56.9960    4.8562 H         1 SUB1        0.110
     71 H51        47.0348   59.3653    4.1420 H         1 SUB1        0.035
     72 H52        48.8034   59.3350    3.8294 H         1 SUB1        0.035
     73 H61        49.3153   59.1931    6.1455 H         1 SUB1        0.029
     74 H62        47.6201   58.7855    6.5776 H         1 SUB1        0.029
     75 H71        48.4754   61.4432    5.3127 H         1 SUB1        0.050
     76 H72        48.2874   61.1861    7.0805 H         1 SUB1        0.050
     77 H81        45.8875   60.2928    5.9240 H         1 SUB1        0.198
     78 H101       47.7155   63.3337    6.0520 H         1 SUB1        0.194
     79 H102       46.2492   64.3420    5.9258 H         1 SUB1        0.194
     80 H111       44.0440   61.5706    5.7343 H         1 SUB1        0.194
     81 H112       44.1817   63.3492    5.7468 H         1 SUB1        0.194
     82 H121       45.6944   57.0200    3.1611 H         1 SUB1        0.188
     83 H131       46.7930   55.9885    0.6681 H         1 SUB1        0.076
     84 H132       45.0588   56.1351    1.1126 H         1 SUB1        0.076
     85 H161       45.7546   56.5858   -1.3658 H         1 SUB1        0.189
     86 H171       46.1909   59.4585   -1.8444 H         1 SUB1        0.082
     87 H201       45.6592   57.0806   -3.6838 H         1 SUB1        0.045
     88 H202       47.2737   57.7261   -3.2328 H         1 SUB1        0.045
     89 H221       47.3897   60.4389   -3.7012 H         1 SUB1        0.053
     90 H231       44.9694   57.6076   -5.8024 H         1 SUB1        0.053
     91 H241       47.4603   61.8755   -5.7039 H         1 SUB1        0.052
     92 H251       45.0267   59.0478   -7.8145 H         1 SUB1        0.052
     93 H271       45.8126   60.9196   -8.7096 H         1 SUB1        0.246
     94 H281       44.6682   60.6939   -3.1304 H         1 SUB1        0.188
     95 H291       41.8173   59.9553   -2.5880 H         1 SUB1        0.080
     96 H321       43.1029   62.5531   -3.6364 H         1 SUB1        0.034
     97 H331       40.8572   62.1706   -4.6034 H         1 SUB1        0.023
     98 H332       40.8129   63.5057   -3.4025 H         1 SUB1        0.023
     99 H333       40.1887   61.8801   -2.9616 H         1 SUB1        0.023
    100 H341       41.7589   61.8802   -0.9650 H         1 SUB1        0.023
    101 H342       42.3814   63.4922   -1.4554 H         1 SUB1        0.023
    102 H343       43.5194   62.1210   -1.2285 H         1 SUB1        0.023
    103 H351       41.2474   58.5256   -4.1985 H         1 SUB1        0.189
    104 H361       42.5753   58.4133   -6.7061 H         1 SUB1        0.082
    105 H391       40.9290   56.6981   -7.3110 H         1 SUB1        0.045
    106 H392       39.8883   57.1836   -5.9297 H         1 SUB1        0.045
    107 H411       40.3498   56.3792   -3.7252 H         1 SUB1        0.053
    108 H421       43.2171   55.7225   -6.8229 H         1 SUB1        0.053
    109 H431       41.6805   54.9562   -2.1935 H         1 SUB1        0.052
    110 H441       44.5525   54.3015   -5.2950 H         1 SUB1        0.052
    111 H461       44.7117   53.4395   -3.2409 H         1 SUB1        0.246
    112 H471       42.0918   58.8348   -8.7124 H         1 SUB1        0.188
    113 H481       40.2600   61.0909   -9.2032 H         1 SUB1        0.080
    114 H511       41.4185   61.1857  -11.3896 H         1 SUB1        0.034
    115 H512       42.3090   59.6799  -10.9822 H         1 SUB1        0.034
    116 H521       43.7144   61.6432  -10.6235 H         1 SUB1        0.050
    117 H522       43.3552   60.8242   -9.0657 H         1 SUB1        0.050
    118 H551       42.9518   62.2105   -7.4567 H         1 SUB1        0.181
    119 H552       42.1625   63.7451   -7.6048 H         1 SUB1        0.181
    120 H561       38.5561   61.0602  -10.5697 H         1 SUB1        0.188
    121 H571       37.0659   58.6920  -10.8852 H         1 SUB1        0.076
    122 H572       36.7629   60.2489  -11.7284 H         1 SUB1        0.076
    123 H601       36.5027   57.4159  -12.6068 H         1 SUB1        0.190
    124 H611       38.6017   57.0908  -14.6339 H         1 SUB1        0.078
    125 H641       37.3799   55.0282  -15.2214 H         1 SUB1        0.033
    126 H642       36.0430   55.5009  -14.1188 H         1 SUB1        0.033
    127 H651       37.5565   55.2566  -12.1812 H         1 SUB1        0.030
    128 H661       36.1819   53.3304  -12.9620 H         1 SUB1        0.023
    129 H662       37.7560   52.7610  -12.3105 H         1 SUB1        0.023
    130 H663       37.4941   52.8386  -14.0858 H         1 SUB1        0.023
    131 H671       39.5613   54.2883  -14.2786 H         1 SUB1        0.023
    132 H672       39.7837   54.2315  -12.4971 H         1 SUB1        0.023
    133 H673       39.6736   55.8147  -13.3384 H         1 SUB1        0.023
    134 H12        49.0336   56.1088    5.4224 H         1 SUB1        0.201
    135 H13        49.8601   57.4665    4.9946 H         1 SUB1        0.201
@<TRIPOS>BOND
     1    3    2 1  
     2    2    5 1  
     3    2    1 1  
     4    5    6 1  
     5    6    7 1  
     6    7    8 1  
     7    8    9 1  
     8    9   10 1  
     9    9   11 1  
    10    3    4 2  
    11   14   13 1  
    12   13   12 1  
    13   14   15 2  
    14   18   17 1  
    15   17   20 1  
    16   17   16 1  
    17   20   21 1  
    18   21   23 ar 
    19   21   22 ar 
    20   22   24 ar 
    21   24   26 ar 
    22   26   27 1  
    23   25   26 ar 
    24   23   25 ar 
    25   18   19 2  
    26   30   29 1  
    27   29   32 1  
    28   29   28 1  
    29   32   33 1  
    30   32   34 1  
    31   30   31 2  
    32   37   36 1  
    33   36   39 1  
    34   36   35 1  
    35   39   40 1  
    36   40   42 ar 
    37   40   41 ar 
    38   41   43 ar 
    39   43   45 ar 
    40   45   46 1  
    41   44   45 ar 
    42   42   44 ar 
    43   37   38 2  
    44   49   48 1  
    45   48   51 1  
    46   48   47 1  
    47   51   52 1  
    48   52   53 1  
    49   53   54 2  
    50   53   55 am 
    51   49   50 2  
    52   58   57 1  
    53   57   56 1  
    54   58   59 2  
    55   61   62 1  
    56   61   64 1  
    57   60   61 1  
    58   64   65 1  
    59   65   67 1  
    60   65   66 1  
    61   62   68 2  
    62   62   63 2  
    63   12    3 am 
    64   16   14 am 
    65   28   18 am 
    66   35   30 am 
    67   47   37 am 
    68   56   49 am 
    69   58   60 am 
    70    1   69 1  
    71    2   70 1  
    72    5   71 1  
    73    5   72 1  
    74    6   73 1  
    75    6   74 1  
    76    7   75 1  
    77    7   76 1  
    78    8   77 1  
    79   10   78 1  
    80   10   79 1  
    81   11   80 1  
    82   11   81 1  
    83   12   82 1  
    84   13   83 1  
    85   13   84 1  
    86   16   85 1  
    87   17   86 1  
    88   20   87 1  
    89   20   88 1  
    90   22   89 1  
    91   23   90 1  
    92   24   91 1  
    93   25   92 1  
    94   27   93 1  
    95   28   94 1  
    96   29   95 1  
    97   32   96 1  
    98   33   97 1  
    99   33   98 1  
   100   33   99 1  
   101   34  100 1  
   102   34  101 1  
   103   34  102 1  
   104   35  103 1  
   105   36  104 1  
   106   39  105 1  
   107   39  106 1  
   108   41  107 1  
   109   42  108 1  
   110   43  109 1  
   111   44  110 1  
   112   46  111 1  
   113   47  112 1  
   114   48  113 1  
   115   51  114 1  
   116   51  115 1  
   117   52  116 1  
   118   52  117 1  
   119   55  118 1  
   120   55  119 1  
   121   56  120 1  
   122   57  121 1  
   123   57  122 1  
   124   60  123 1  
   125   61  124 1  
   126   64  125 1  
   127   64  126 1  
   128   65  127 1  
   129   66  128 1  
   130   66  129 1  
   131   66  130 1  
   132   67  131 1  
   133   67  132 1  
   134   67  133 1  
   135    1  134 1  
   136    1  135 1  
@<TRIPOS>SUBSTRUCTURE
     1 SUB1        1 GROUP

