### 
### Created by X-TOOL on Mon Oct 24 22:41:48 2005
### 

@<TRIPOS>MOLECULE
1f2p_ligand
   23    23     1     0     0
SMALL
GAST_HUCK


@<TRIPOS>ATOM
      1 N          16.1820   15.9410   52.1520 N.4       1 SUB1        0.240
      2 CA         15.0890   16.9300   51.8910 C.3       1 SUB1        0.024
      3 C          13.7800   16.2360   51.6750 C.2       1 SUB1        0.078
      4 O          13.7260   14.9820   51.6430 O.co2     1 SUB1       -0.561
      5 CB         15.3790   17.7650   50.6390 C.3       1 SUB1        0.035
      6 CG         16.7610   18.2720   50.5890 C.ar      1 SUB1       -0.035
      7 CD1        17.1930   19.2250   51.5010 C.ar      1 SUB1       -0.060
      8 CD2        17.6780   17.7290   49.6830 C.ar      1 SUB1       -0.060
      9 CE1        18.5420   19.6340   51.5150 C.ar      1 SUB1       -0.069
     10 CE2        19.0110   18.1270   49.6930 C.ar      1 SUB1       -0.069
     11 CZ         19.4480   19.0670   50.5950 C.ar      1 SUB1       -0.069
     12 OXT        12.8170   17.0050   51.5210 O.co2     1 SUB1       -0.561
     13 H11        15.7981   15.0090   52.1551 H         1 SUB1        0.202
     14 H21        15.0071   17.5982   52.7609 H         1 SUB1        0.109
     15 H51        14.6908   18.6230   50.6234 H         1 SUB1        0.052
     16 H52        15.2038   17.1383   49.7521 H         1 SUB1        0.052
     17 H71        16.4906   19.6563   52.2050 H         1 SUB1        0.056
     18 H81        17.3458   16.9888   48.9641 H         1 SUB1        0.056
     19 H91        18.8801   20.3782   52.2270 H         1 SUB1        0.060
     20 H101       19.7085   17.6933   48.9856 H         1 SUB1        0.060
     21 H111       20.4881   19.3724   50.5994 H         1 SUB1        0.056
     22 H12        16.6030   16.1339   53.0473 H         1 SUB1        0.202
     23 H13        16.8809   16.0141   51.4293 H         1 SUB1        0.202
@<TRIPOS>BOND
     1    2    3 1  
     2    2    5 1  
     3    2    1 1  
     4    5    6 1  
     5    6    8 ar 
     6    6    7 ar 
     7    7    9 ar 
     8    9   11 ar 
     9   11   10 ar 
    10   10    8 ar 
    11    3   12 2  
    12    3    4 2  
    13    1   13 1  
    14    2   14 1  
    15    5   15 1  
    16    5   16 1  
    17    7   17 1  
    18    8   18 1  
    19    9   19 1  
    20   10   20 1  
    21   11   21 1  
    22    1   22 1  
    23    1   23 1  
@<TRIPOS>SUBSTRUCTURE
     1 SUB1        1 GROUP

