### 
### Created by X-TOOL on Tue Oct 25 01:35:57 2005
### 

@<TRIPOS>MOLECULE
1lf9_ligand
   87    90     1     0     0
SMALL
GAST_HUCK


@<TRIPOS>ATOM
      1 C1A        38.9720   45.5220   32.6710 C.3       1 SUB1        0.043
      2 C2A        40.3550   45.1300   33.2820 C.3       1 SUB1        0.103
      3 C3A        40.9460   43.8720   32.5900 C.3       1 SUB1        0.118
      4 C4A        39.9780   42.5970   32.6900 C.3       1 SUB1        0.111
      5 C5A        38.4560   42.9740   32.7050 C.2       1 SUB1       -0.024
      6 C6A        37.4250   41.8500   32.7540 C.3       1 SUB1        0.072
      7 C7A        38.0160   44.3090   32.6830 C.2       1 SUB1       -0.085
      8 O2A        41.1950   46.2590   33.1940 O.3       1 SUB1       -0.386
      9 O3A        42.1850   43.5350   33.1630 O.3       1 SUB1       -0.384
     10 O4A        40.3270   41.7550   31.6080 O.3       1 SUB1       -0.378
     11 O6A        37.1730   41.4940   34.1240 O.3       1 SUB1       -0.384
     12 C1B        37.3070   49.5950   29.4660 C.3       1 SUB1        0.188
     13 C2B        38.4440   49.7870   30.4940 C.3       1 SUB1        0.133
     14 C3B        39.2840   48.4810   30.6370 C.3       1 SUB1        0.104
     15 C4B        38.3420   47.3430   31.0980 C.3       1 SUB1        0.064
     16 C5B        37.2100   47.1560   29.9780 C.3       1 SUB1        0.077
     17 C6B        36.1930   46.0830   30.3070 C.3       1 SUB1       -0.037
     18 N4B        39.1100   46.0700   31.2790 N.3       1 SUB1       -0.299
     19 O2B        39.2470   50.8950   30.0820 O.3       1 SUB1       -0.384
     20 O3B        40.3230   48.7140   31.5970 O.3       1 SUB1       -0.387
     21 O5B        36.4630   48.4450   29.8120 O.3       1 SUB1       -0.344
     22 C1C        36.3480   50.1490   24.2130 C.3       1 SUB1        0.188
     23 C2C        35.3100   50.3710   25.3650 C.3       1 SUB1        0.134
     24 C3C        36.1230   50.5710   26.6870 C.3       1 SUB1        0.114
     25 C4C        36.9530   49.2520   26.9650 C.3       1 SUB1        0.118
     26 C5C        37.9080   49.0570   25.8050 C.3       1 SUB1        0.113
     27 C6C        38.7020   47.7490   25.9940 C.3       1 SUB1        0.073
     28 O2C        34.5300   51.5160   25.0660 O.3       1 SUB1       -0.384
     29 O3C        35.2010   50.7860   27.7190 O.3       1 SUB1       -0.386
     30 O4C        37.8040   49.3280   28.1650 O.3       1 SUB1       -0.340
     31 O5C        37.1460   48.9750   24.5340 O.3       1 SUB1       -0.340
     32 O6C        39.8840   47.7890   25.2420 O.3       1 SUB1       -0.392
     33 C1D        38.8550   54.0150   21.1980 C.3       1 SUB1        0.185
     34 C2D        37.3070   54.0130   21.3880 C.3       1 SUB1        0.134
     35 C3D        36.9640   53.3950   22.7730 C.3       1 SUB1        0.114
     36 C4D        37.4970   51.9410   22.8280 C.3       1 SUB1        0.118
     37 C5D        39.0410   51.9720   22.6440 C.3       1 SUB1        0.113
     38 C6D        39.6420   50.5430   22.6700 C.3       1 SUB1        0.073
     39 O1D        39.4710   54.8610   22.1470 O.3       1 SUB1       -0.365
     40 O2D        36.8280   55.3550   21.2820 O.3       1 SUB1       -0.384
     41 O3D        35.5510   53.3920   22.9370 O.3       1 SUB1       -0.386
     42 O4D        37.1970   51.3120   24.1300 O.3       1 SUB1       -0.340
     43 O5D        39.3810   52.6240   21.3370 O.3       1 SUB1       -0.341
     44 O6D        38.9510   49.6520   21.7980 O.3       1 SUB1       -0.392
     45 H11        38.5344   46.3185   33.2907 H         1 SUB1        0.056
     46 H21        40.2222   44.8980   34.3490 H         1 SUB1        0.065
     47 H31        41.1127   44.1067   31.5284 H         1 SUB1        0.067
     48 H41        40.1958   42.0564   33.6229 H         1 SUB1        0.077
     49 H61        36.4840   42.1860   32.2941 H         1 SUB1        0.071
     50 H62        37.8088   40.9676   32.2211 H         1 SUB1        0.071
     51 H71        36.9436   44.4980   32.6739 H         1 SUB1        0.026
     52 H81        41.3390   46.4747   32.2800 H         1 SUB1        0.210
     53 H91        42.7702   44.2816   33.1111 H         1 SUB1        0.210
     54 H101       41.2557   41.5590   31.6475 H         1 SUB1        0.213
     55 H111       36.5312   40.7943   34.1553 H         1 SUB1        0.213
     56 H121       36.7003   50.5119   29.4326 H         1 SUB1        0.094
     57 H131       38.0084   50.0321   31.4739 H         1 SUB1        0.067
     58 H141       39.7464   48.2158   29.6748 H         1 SUB1        0.064
     59 H151       37.8783   47.6066   32.0600 H         1 SUB1        0.051
     60 H161       37.6983   46.9044   29.0250 H         1 SUB1        0.061
     61 H171       35.4587   46.0230   29.4901 H         1 SUB1        0.025
     62 H172       36.6947   45.1095   30.4098 H         1 SUB1        0.025
     63 H173       35.6698   46.3358   31.2410 H         1 SUB1        0.025
     64 H181       40.1518   46.2723   31.0788 H         1 SUB1        0.124
     65 H191       39.9282   51.0479   30.7263 H         1 SUB1        0.210
     66 H201       40.8351   47.9213   31.7065 H         1 SUB1        0.210
     67 H221       35.8334   50.0091   23.2510 H         1 SUB1        0.094
     68 H231       34.6413   49.5026   25.4577 H         1 SUB1        0.067
     69 H241       36.7947   51.4385   26.6087 H         1 SUB1        0.065
     70 H251       36.2675   48.3978   27.0669 H         1 SUB1        0.065
     71 H261       38.6004   49.9098   25.7480 H         1 SUB1        0.065
     72 H271       38.9629   47.6246   27.0553 H         1 SUB1        0.058
     73 H272       38.0962   46.8960   25.6543 H         1 SUB1        0.058
     74 H281       35.1008   52.2680   24.9609 H         1 SUB1        0.210
     75 H291       34.7089   51.5791   27.5423 H         1 SUB1        0.210
     76 H321       40.3645   46.9789   25.3660 H         1 SUB1        0.209
     77 H331       39.0947   54.3734   20.1860 H         1 SUB1        0.094
     78 H341       36.8343   53.4147   20.5952 H         1 SUB1        0.067
     79 H351       37.4162   53.9929   23.5779 H         1 SUB1        0.065
     80 H361       37.0293   51.3431   22.0320 H         1 SUB1        0.065
     81 H371       39.4874   52.5663   23.4548 H         1 SUB1        0.065
     82 H381       40.6939   50.5882   22.3516 H         1 SUB1        0.058
     83 H382       39.5765   50.1426   23.6924 H         1 SUB1        0.058
     84 H391       39.1308   55.7428   22.0514 H         1 SUB1        0.213
     85 H401       37.2299   55.8878   21.9580 H         1 SUB1        0.210
     86 H411       35.3317   53.0065   23.7770 H         1 SUB1        0.210
     87 H441       39.3505   48.7914   21.8450 H         1 SUB1        0.209
@<TRIPOS>BOND
     1    1    2 1  
     2    1    7 1  
     3   18    1 1  
     4    2    3 1  
     5    2    8 1  
     6    3    4 1  
     7    3    9 1  
     8    5    4 1  
     9    4   10 1  
    10    5    6 1  
    11    7    5 2  
    12    6   11 1  
    13   12   13 1  
    14   13   14 1  
    15   14   15 1  
    16   16   15 1  
    17   15   18 1  
    18   16   17 1  
    19   21   16 1  
    20   13   19 1  
    21   14   20 1  
    22   12   21 1  
    23   22   23 1  
    24   22   31 1  
    25   42   22 1  
    26   23   24 1  
    27   23   28 1  
    28   24   25 1  
    29   24   29 1  
    30   26   25 1  
    31   25   30 1  
    32   26   27 1  
    33   31   26 1  
    34   27   32 1  
    35   30   12 1  
    36   34   33 1  
    37   33   39 1  
    38   35   34 1  
    39   34   40 1  
    40   36   35 1  
    41   35   41 1  
    42   36   37 1  
    43   42   36 1  
    44   37   38 1  
    45   37   43 1  
    46   38   44 1  
    47   43   33 1  
    48    1   45 1  
    49    2   46 1  
    50    3   47 1  
    51    4   48 1  
    52    6   49 1  
    53    6   50 1  
    54    7   51 1  
    55    8   52 1  
    56    9   53 1  
    57   10   54 1  
    58   11   55 1  
    59   12   56 1  
    60   13   57 1  
    61   14   58 1  
    62   15   59 1  
    63   16   60 1  
    64   17   61 1  
    65   17   62 1  
    66   17   63 1  
    67   18   64 1  
    68   19   65 1  
    69   20   66 1  
    70   22   67 1  
    71   23   68 1  
    72   24   69 1  
    73   25   70 1  
    74   26   71 1  
    75   27   72 1  
    76   27   73 1  
    77   28   74 1  
    78   29   75 1  
    79   32   76 1  
    80   33   77 1  
    81   34   78 1  
    82   35   79 1  
    83   36   80 1  
    84   37   81 1  
    85   38   82 1  
    86   38   83 1  
    87   39   84 1  
    88   40   85 1  
    89   41   86 1  
    90   44   87 1  
@<TRIPOS>SUBSTRUCTURE
     1 SUB1        1 GROUP

