1lf9_ligand
  -I-interpret- 

 87 90  0  0  0  0  0  0  0  0999 V2000
   38.9720   45.5220   32.6710 C   0  0  0  0  0
   40.3550   45.1300   33.2820 C   0  0  0  0  0
   40.9460   43.8720   32.5900 C   0  0  0  0  0
   39.9780   42.5970   32.6900 C   0  0  0  0  0
   38.4560   42.9740   32.7050 C   0  0  0  0  0
   37.4250   41.8500   32.7540 C   0  0  0  0  0
   38.0160   44.3090   32.6830 C   0  0  0  0  0
   41.1950   46.2590   33.1940 O   0  0  0  0  0
   42.1850   43.5350   33.1630 O   0  0  0  0  0
   40.3270   41.7550   31.6080 O   0  0  0  0  0
   37.1730   41.4940   34.1240 O   0  0  0  0  0
   37.3070   49.5950   29.4660 C   0  0  0  0  0
   38.4440   49.7870   30.4940 C   0  0  0  0  0
   39.2840   48.4810   30.6370 C   0  0  0  0  0
   38.3420   47.3430   31.0980 C   0  0  0  0  0
   37.2100   47.1560   29.9780 C   0  0  0  0  0
   36.1930   46.0830   30.3070 C   0  0  0  0  0
   39.1100   46.0700   31.2790 N   0  0  0  0  0
   39.2470   50.8950   30.0820 O   0  0  0  0  0
   40.3230   48.7140   31.5970 O   0  0  0  0  0
   36.4630   48.4450   29.8120 O   0  0  0  0  0
   36.3480   50.1490   24.2130 C   0  0  0  0  0
   35.3100   50.3710   25.3650 C   0  0  0  0  0
   36.1230   50.5710   26.6870 C   0  0  0  0  0
   36.9530   49.2520   26.9650 C   0  0  0  0  0
   37.9080   49.0570   25.8050 C   0  0  0  0  0
   38.7020   47.7490   25.9940 C   0  0  0  0  0
   34.5300   51.5160   25.0660 O   0  0  0  0  0
   35.2010   50.7860   27.7190 O   0  0  0  0  0
   37.8040   49.3280   28.1650 O   0  0  0  0  0
   37.1460   48.9750   24.5340 O   0  0  0  0  0
   39.8840   47.7890   25.2420 O   0  0  0  0  0
   38.8550   54.0150   21.1980 C   0  0  0  0  0
   37.3070   54.0130   21.3880 C   0  0  0  0  0
   36.9640   53.3950   22.7730 C   0  0  0  0  0
   37.4970   51.9410   22.8280 C   0  0  0  0  0
   39.0410   51.9720   22.6440 C   0  0  0  0  0
   39.6420   50.5430   22.6700 C   0  0  0  0  0
   39.4710   54.8610   22.1470 O   0  0  0  0  0
   36.8280   55.3550   21.2820 O   0  0  0  0  0
   35.5510   53.3920   22.9370 O   0  0  0  0  0
   37.1970   51.3120   24.1300 O   0  0  0  0  0
   39.3810   52.6240   21.3370 O   0  0  0  0  0
   38.9510   49.6520   21.7980 O   0  0  0  0  0
   38.5344   46.3185   33.2907 H   0  0  0  0  0
   40.2222   44.8980   34.3490 H   0  0  0  0  0
   41.1127   44.1067   31.5284 H   0  0  0  0  0
   40.1958   42.0564   33.6229 H   0  0  0  0  0
   36.4840   42.1860   32.2941 H   0  0  0  0  0
   37.8088   40.9676   32.2211 H   0  0  0  0  0
   36.9436   44.4980   32.6739 H   0  0  0  0  0
   41.3390   46.4747   32.2800 H   0  0  0  0  0
   42.7702   44.2816   33.1111 H   0  0  0  0  0
   41.2557   41.5590   31.6475 H   0  0  0  0  0
   36.5312   40.7943   34.1553 H   0  0  0  0  0
   36.7003   50.5119   29.4326 H   0  0  0  0  0
   38.0084   50.0321   31.4739 H   0  0  0  0  0
   39.7464   48.2158   29.6748 H   0  0  0  0  0
   37.8783   47.6066   32.0600 H   0  0  0  0  0
   37.6983   46.9044   29.0250 H   0  0  0  0  0
   35.4587   46.0230   29.4901 H   0  0  0  0  0
   36.6947   45.1095   30.4098 H   0  0  0  0  0
   35.6698   46.3358   31.2410 H   0  0  0  0  0
   40.1518   46.2723   31.0788 H   0  0  0  0  0
   39.9282   51.0479   30.7263 H   0  0  0  0  0
   40.8351   47.9213   31.7065 H   0  0  0  0  0
   35.8334   50.0091   23.2510 H   0  0  0  0  0
   34.6413   49.5026   25.4577 H   0  0  0  0  0
   36.7947   51.4385   26.6087 H   0  0  0  0  0
   36.2675   48.3978   27.0669 H   0  0  0  0  0
   38.6004   49.9098   25.7480 H   0  0  0  0  0
   38.9629   47.6246   27.0553 H   0  0  0  0  0
   38.0962   46.8960   25.6543 H   0  0  0  0  0
   35.1008   52.2680   24.9609 H   0  0  0  0  0
   34.7089   51.5791   27.5423 H   0  0  0  0  0
   40.3645   46.9789   25.3660 H   0  0  0  0  0
   39.0947   54.3734   20.1860 H   0  0  0  0  0
   36.8343   53.4147   20.5952 H   0  0  0  0  0
   37.4162   53.9929   23.5779 H   0  0  0  0  0
   37.0293   51.3431   22.0320 H   0  0  0  0  0
   39.4874   52.5663   23.4548 H   0  0  0  0  0
   40.6939   50.5882   22.3516 H   0  0  0  0  0
   39.5765   50.1426   23.6924 H   0  0  0  0  0
   39.1308   55.7428   22.0514 H   0  0  0  0  0
   37.2299   55.8878   21.9580 H   0  0  0  0  0
   35.3317   53.0065   23.7770 H   0  0  0  0  0
   39.3505   48.7914   21.8450 H   0  0  0  0  0
  1  2  1  0  0  0
  1  7  1  0  0  0
 18  1  1  0  0  0
  2  3  1  0  0  0
  2  8  1  0  0  0
  3  4  1  0  0  0
  3  9  1  0  0  0
  5  4  1  0  0  0
  4 10  1  0  0  0
  5  6  1  0  0  0
  7  5  2  0  0  0
  6 11  1  0  0  0
 12 13  1  0  0  0
 13 14  1  0  0  0
 14 15  1  0  0  0
 16 15  1  0  0  0
 15 18  1  0  0  0
 16 17  1  0  0  0
 21 16  1  0  0  0
 13 19  1  0  0  0
 14 20  1  0  0  0
 12 21  1  0  0  0
 22 23  1  0  0  0
 22 31  1  0  0  0
 42 22  1  0  0  0
 23 24  1  0  0  0
 23 28  1  0  0  0
 24 25  1  0  0  0
 24 29  1  0  0  0
 26 25  1  0  0  0
 25 30  1  0  0  0
 26 27  1  0  0  0
 31 26  1  0  0  0
 27 32  1  0  0  0
 30 12  1  0  0  0
 34 33  1  0  0  0
 33 39  1  0  0  0
 35 34  1  0  0  0
 34 40  1  0  0  0
 36 35  1  0  0  0
 35 41  1  0  0  0
 36 37  1  0  0  0
 42 36  1  0  0  0
 37 38  1  0  0  0
 37 43  1  0  0  0
 38 44  1  0  0  0
 43 33  1  0  0  0
  1 45  1  0  0  0
  2 46  1  0  0  0
  3 47  1  0  0  0
  4 48  1  0  0  0
  6 49  1  0  0  0
  6 50  1  0  0  0
  7 51  1  0  0  0
  8 52  1  0  0  0
  9 53  1  0  0  0
 10 54  1  0  0  0
 11 55  1  0  0  0
 12 56  1  0  0  0
 13 57  1  0  0  0
 14 58  1  0  0  0
 15 59  1  0  0  0
 16 60  1  0  0  0
 17 61  1  0  0  0
 17 62  1  0  0  0
 17 63  1  0  0  0
 18 64  1  0  0  0
 19 65  1  0  0  0
 20 66  1  0  0  0
 22 67  1  0  0  0
 23 68  1  0  0  0
 24 69  1  0  0  0
 25 70  1  0  0  0
 26 71  1  0  0  0
 27 72  1  0  0  0
 27 73  1  0  0  0
 28 74  1  0  0  0
 29 75  1  0  0  0
 32 76  1  0  0  0
 33 77  1  0  0  0
 34 78  1  0  0  0
 35 79  1  0  0  0
 36 80  1  0  0  0
 37 81  1  0  0  0
 38 82  1  0  0  0
 38 83  1  0  0  0
 39 84  1  0  0  0
 40 85  1  0  0  0
 41 86  1  0  0  0
 44 87  1  0  0  0
M  END
$$$$
