### 
### Created by X-TOOL on Mon Oct 24 21:58:54 2005
### 

@<TRIPOS>MOLECULE
1sdv_ligand
   92    96     1     0     0
SMALL
GAST_HUCK


@<TRIPOS>ATOM
      1 N1         23.5910   20.5680    2.9010 N.3       1 SUB1       -0.285
      2 C1         23.5320   20.3780    4.3900 C.3       1 SUB1        0.034
      3 C2         24.4930   19.3320    4.9700 C.3       1 SUB1        0.114
      4 C3         24.4050   19.3170    6.4600 C.2       1 SUB1        0.195
      5 O1         23.3770   18.9420    7.0090 O.2       1 SUB1       -0.395
      6 N2         25.4990   19.7270    7.0960 N.am      1 SUB1       -0.280
      7 C4         25.6710   19.7460    8.5380 C.3       1 SUB1        0.045
      8 C5         27.0690   20.2970    8.8310 C.3       1 SUB1       -0.040
      9 C6         25.5490   18.4430    9.0430 C.3       1 SUB1       -0.040
     10 C7         24.6680   20.6270    9.1400 C.3       1 SUB1       -0.040
     11 N3         23.9590   18.0700    4.3150 N.3       1 SUB1       -0.278
     12 C8         23.9500   18.1470    2.8330 C.3       1 SUB1        0.014
     13 C9         23.2510   19.3740    2.2800 C.3       1 SUB1        0.014
     14 C10        24.7690   16.8890    4.6800 C.3       1 SUB1        0.028
     15 C11        23.8660   15.6730    4.9390 C.3       1 SUB1        0.071
     16 O2         24.6310   14.5740    4.5980 O.3       1 SUB1       -0.390
     17 C12        23.3970   15.5450    6.4000 C.3       1 SUB1       -0.004
     18 C13        22.5180   14.3080    6.7430 C.3       1 SUB1        0.061
     19 C14        22.3560   14.2170    8.2740 C.3       1 SUB1        0.001
     20 C15        21.4340   13.1780    8.7560 C.ar      1 SUB1       -0.041
     21 C16        21.7070   11.8270    8.5270 C.ar      1 SUB1       -0.060
     22 C17        20.8290   10.8650    9.0160 C.ar      1 SUB1       -0.069
     23 C18        19.6990   11.2460    9.7230 C.ar      1 SUB1       -0.069
     24 C19        19.4370   12.5900    9.9640 C.ar      1 SUB1       -0.069
     25 C20        20.3120   13.5360    9.4770 C.ar      1 SUB1       -0.060
     26 C21        21.1560   14.4840    6.1000 C.2       1 SUB1        0.183
     27 O3         20.4720   15.5250    6.1120 O.2       1 SUB1       -0.396
     28 N4         20.7220   13.3530    5.5760 N.am      1 SUB1       -0.271
     29 C22        19.3100   13.2310    5.2450 C.3       1 SUB1        0.101
     30 C23        18.6950   11.8770    5.5690 C.3       1 SUB1        0.095
     31 O4         19.5970   10.8120    5.2650 O.3       1 SUB1       -0.386
     32 C24        17.4730   11.7970    4.6840 C.3       1 SUB1        0.009
     33 C25        17.8380   12.4530    3.3660 C.ar      1 SUB1       -0.036
     34 C26        17.3650   12.3900    2.0830 C.ar      1 SUB1       -0.067
     35 C27        17.9900   13.1970    1.1420 C.ar      1 SUB1       -0.075
     36 C28        19.0450   14.0510    1.4600 C.ar      1 SUB1       -0.075
     37 C29        19.5280   14.1430    2.7420 C.ar      1 SUB1       -0.065
     38 C30        19.0030   13.3900    3.7380 C.ar      1 SUB1       -0.013
     39 C31        22.8200   21.6920    2.3900 C.3       1 SUB1        0.039
     40 C32        23.0380   23.0670    3.0360 C.ar      1 SUB1       -0.001
     41 C33        24.2070   23.8070    2.8140 C.ar      1 SUB1        0.014
     42 N5         24.4410   25.1230    3.2750 N.ar      1 SUB1       -0.304
     43 C34        23.3450   25.5640    3.9970 C.ar      1 SUB1        0.004
     44 C35        22.1730   24.8660    4.2610 C.ar      1 SUB1       -0.040
     45 C36        21.9880   23.5740    3.7910 C.ar      1 SUB1       -0.039
     46 H21        22.5071   20.0756    4.6510 H         1 SUB1        0.047
     47 H22        23.7607   21.3446    4.8626 H         1 SUB1        0.047
     48 H31        25.5341   19.5231    4.6709 H         1 SUB1        0.072
     49 H61        26.2636   20.0476    6.5369 H         1 SUB1        0.186
     50 H81        27.2317   20.3246    9.9186 H         1 SUB1        0.025
     51 H82        27.1555   21.3142    8.4215 H         1 SUB1        0.025
     52 H83        27.8243   19.6481    8.3636 H         1 SUB1        0.025
     53 H91        25.6795   18.4593   10.1351 H         1 SUB1        0.025
     54 H92        26.3195   17.8010    8.5912 H         1 SUB1        0.025
     55 H93        24.5523   18.0469    8.7988 H         1 SUB1        0.025
     56 H101       24.7997   20.6402   10.2320 H         1 SUB1        0.025
     57 H102       23.6612   20.2567    8.8966 H         1 SUB1        0.025
     58 H103       24.7897   21.6459    8.7437 H         1 SUB1        0.025
     59 H121       23.4391   17.2539    2.4440 H         1 SUB1        0.044
     60 H122       24.9922   18.1556    2.4814 H         1 SUB1        0.044
     61 H131       23.5034   19.4595    1.2128 H         1 SUB1        0.044
     62 H132       22.1663   19.2282    2.3897 H         1 SUB1        0.044
     63 H141       25.3442   17.1125    5.5906 H         1 SUB1        0.045
     64 H142       25.4608   16.6567    3.8570 H         1 SUB1        0.045
     65 H151       22.9785   15.7338    4.2920 H         1 SUB1        0.061
     66 H161       24.1251   13.7820    4.7368 H         1 SUB1        0.210
     67 H171       22.8150   16.4460    6.6440 H         1 SUB1        0.032
     68 H172       24.2935   15.5041    7.0361 H         1 SUB1        0.032
     69 H181       22.9945   13.3921    6.3635 H         1 SUB1        0.056
     70 H191       21.9876   15.1891    8.6335 H         1 SUB1        0.045
     71 H192       23.3470   14.0173    8.7076 H         1 SUB1        0.045
     72 H211       22.5921   11.5320    7.9751 H         1 SUB1        0.056
     73 H221       21.0292    9.8137    8.8436 H         1 SUB1        0.060
     74 H231       19.0144   10.4902   10.0908 H         1 SUB1        0.056
     75 H241       18.5591   12.8884   10.5256 H         1 SUB1        0.060
     76 H251       20.1153   14.5855    9.6640 H         1 SUB1        0.056
     77 H281       21.3516   12.5941    5.4095 H         1 SUB1        0.188
     78 H291       18.7794   14.0124    5.8087 H         1 SUB1        0.073
     79 H301       18.4121   11.8249    6.6307 H         1 SUB1        0.066
     80 H311       19.1874    9.9814    5.4768 H         1 SUB1        0.210
     81 H321       16.6321   12.3302    5.1515 H         1 SUB1        0.044
     82 H322       17.1942   10.7459    4.5186 H         1 SUB1        0.044
     83 H341       16.5403   11.7399    1.8141 H         1 SUB1        0.054
     84 H351       17.6427   13.1615    0.1157 H         1 SUB1        0.054
     85 H361       19.4932   14.6548    0.6792 H         1 SUB1        0.054
     86 H371       20.3401   14.8272    2.9599 H         1 SUB1        0.054
     87 H391       21.7559   21.4398    2.5084 H         1 SUB1        0.060
     88 H392       23.0564   21.7918    1.3204 H         1 SUB1        0.060
     89 H411       24.9961   23.3319    2.2424 H         1 SUB1        0.076
     90 H431       23.4085   26.5674    4.4022 H         1 SUB1        0.077
     91 H441       21.3906   25.3386    4.8436 H         1 SUB1        0.069
     92 H451       21.0905   23.0023    3.9976 H         1 SUB1        0.068
@<TRIPOS>BOND
     1    1    2 1  
     2    1   13 1  
     3    1   39 1  
     4    2    3 1  
     5    3    4 1  
     6    3   11 1  
     7    4    5 2  
     8    4    6 am 
     9    6    7 1  
    10    7    8 1  
    11    7    9 1  
    12    7   10 1  
    13   11   12 1  
    14   11   14 1  
    15   12   13 1  
    16   14   15 1  
    17   15   16 1  
    18   15   17 1  
    19   17   18 1  
    20   18   19 1  
    21   18   26 1  
    22   19   20 1  
    23   20   21 ar 
    24   20   25 ar 
    25   21   22 ar 
    26   22   23 ar 
    27   23   24 ar 
    28   24   25 ar 
    29   26   27 2  
    30   26   28 am 
    31   28   29 1  
    32   29   30 1  
    33   29   38 1  
    34   30   31 1  
    35   30   32 1  
    36   32   33 1  
    37   33   34 ar 
    38   33   38 ar 
    39   34   35 ar 
    40   35   36 ar 
    41   36   37 ar 
    42   37   38 ar 
    43   39   40 1  
    44   40   41 ar 
    45   40   45 ar 
    46   41   42 ar 
    47   42   43 ar 
    48   43   44 ar 
    49   44   45 ar 
    50    2   46 1  
    51    2   47 1  
    52    3   48 1  
    53    6   49 1  
    54    8   50 1  
    55    8   51 1  
    56    8   52 1  
    57    9   53 1  
    58    9   54 1  
    59    9   55 1  
    60   10   56 1  
    61   10   57 1  
    62   10   58 1  
    63   12   59 1  
    64   12   60 1  
    65   13   61 1  
    66   13   62 1  
    67   14   63 1  
    68   14   64 1  
    69   15   65 1  
    70   16   66 1  
    71   17   67 1  
    72   17   68 1  
    73   18   69 1  
    74   19   70 1  
    75   19   71 1  
    76   21   72 1  
    77   22   73 1  
    78   23   74 1  
    79   24   75 1  
    80   25   76 1  
    81   28   77 1  
    82   29   78 1  
    83   30   79 1  
    84   31   80 1  
    85   32   81 1  
    86   32   82 1  
    87   34   83 1  
    88   35   84 1  
    89   36   85 1  
    90   37   86 1  
    91   39   87 1  
    92   39   88 1  
    93   41   89 1  
    94   43   90 1  
    95   44   91 1  
    96   45   92 1  
@<TRIPOS>SUBSTRUCTURE
     1 SUB1        1 GROUP

