### 
### Created by X-TOOL on Tue Oct 25 00:27:17 2005
### 

@<TRIPOS>MOLECULE
1ceb_ligand
   26    26     1     0     0
SMALL
GAST_HUCK


@<TRIPOS>ATOM
      1 C1         21.9090   -3.5670   40.8230 C.3       1 SUB1       -0.002
      2 C2         22.0520   -2.2980   40.0920 C.3       1 SUB1       -0.038
      3 C3         20.7430   -1.6000   39.9020 C.3       1 SUB1       -0.042
      4 C4         19.8410   -1.6570   41.0620 C.3       1 SUB1       -0.000
      5 C5         19.7300   -2.9920   41.7890 C.3       1 SUB1       -0.042
      6 C6         21.0410   -3.6860   42.0220 C.3       1 SUB1       -0.038
      7 C7         18.3710   -1.0160   40.8590 C.3       1 SUB1       -0.032
      8 C8         23.0010   -4.6150   40.7470 C.2       1 SUB1        0.031
      9 N          18.1280   -0.5020   42.1640 N.4       1 SUB1        0.219
     10 O1         24.2000   -4.4640   40.9570 O.co2     1 SUB1       -0.566
     11 O2         22.5780   -5.7630   40.3660 O.co2     1 SUB1       -0.566
     12 H11        21.2156   -4.0324   40.1071 H         1 SUB1        0.052
     13 H21        22.4880   -2.5065   39.1039 H         1 SUB1        0.030
     14 H22        22.7256   -1.6379   40.6582 H         1 SUB1        0.030
     15 H31        20.2295   -2.0622   39.0460 H         1 SUB1        0.027
     16 H32        20.9480   -0.5425   39.6793 H         1 SUB1        0.027
     17 H41        20.3306   -0.9928   41.7894 H         1 SUB1        0.035
     18 H51        19.0911   -3.6573   41.1897 H         1 SUB1        0.027
     19 H52        19.2580   -2.8127   42.7663 H         1 SUB1        0.027
     20 H61        21.5471   -3.2253   42.8832 H         1 SUB1        0.030
     21 H62        20.8558   -4.7499   42.2315 H         1 SUB1        0.030
     22 H71        17.6304   -1.7796   40.5792 H         1 SUB1        0.082
     23 H72        18.3775   -0.2171   40.1029 H         1 SUB1        0.082
     24 H91        17.2218   -0.0613   42.1881 H         1 SUB1        0.199
     25 H92        18.8374    0.1756   42.3957 H         1 SUB1        0.199
     26 H93        18.1527   -1.2563   42.8322 H         1 SUB1        0.199
@<TRIPOS>BOND
     1    1    8 1  
     2    1    6 1  
     3    1    2 1  
     4    2    3 1  
     5    3    4 1  
     6    4    7 1  
     7    4    5 1  
     8    5    6 1  
     9    7    9 1  
    10    8   11 2  
    11    8   10 2  
    12    1   12 1  
    13    2   13 1  
    14    2   14 1  
    15    3   15 1  
    16    3   16 1  
    17    4   17 1  
    18    5   18 1  
    19    5   19 1  
    20    6   20 1  
    21    6   21 1  
    22    7   22 1  
    23    7   23 1  
    24    9   24 1  
    25    9   25 1  
    26    9   26 1  
@<TRIPOS>SUBSTRUCTURE
     1 SUB1        1 GROUP

