2g94_ligand
  -I-interpret- 

 99 99  0  0  0  0  0  0  0  0999 V2000
    1.9840   -5.6010   34.5190 C   0  0  0  0  0
    2.8960   -4.4190   34.3400 C   0  0  0  0  0
    3.1050   -4.3720   32.7670 N   0  0  0  0  0
    2.3600   -5.4370   32.2460 N   0  0  0  0  0
    1.6920   -6.1680   33.3200 C   0  0  0  0  0
    3.5180   -3.4650   35.2730 C   0  0  0  0  0
    2.2360   -5.8200   30.8060 C   0  0  0  0  0
    0.9210   -5.6910   30.2630 O   0  0  0  0  0
    0.3730   -4.4380   30.1400 C   0  0  0  0  0
    0.8010   -7.3800   33.1860 C   0  0  0  0  0
    0.9980   -3.3940   30.3070 O   0  0  0  0  0
   -0.9370   -4.4500   29.8110 N   0  0  0  0  0
   -1.8500   -3.3340   29.6050 C   0  0  0  0  0
   -2.0480   -3.1530   28.0760 C   0  0  0  0  0
   -0.8900   -2.0900   27.2550 S   0  0  0  0  0
   -1.5140   -1.6570   26.0290 O   0  0  0  0  0
   -0.4950   -1.0130   28.1650 O   0  0  0  0  0
    0.4660   -3.1910   26.9130 C   0  0  0  0  0
   -3.1140   -3.7990   30.2500 C   0  0  0  0  0
   -4.1370   -4.0120   29.6070 O   0  0  0  0  0
   -3.0360   -3.9860   31.6190 N   0  0  0  0  0
   -4.2220   -4.4770   32.3760 C   0  0  0  0  0
   -4.9840   -3.3880   33.1830 C   0  0  0  0  0
   -3.7950   -5.6640   33.3040 C   0  0  0  0  0
   -3.2620   -6.9030   32.5090 C   0  0  0  0  0
   -4.3290   -7.5100   31.5750 C   0  0  0  0  0
   -2.8050   -7.9870   33.5000 C   0  0  0  0  0
   -5.3600   -2.1940   32.2830 C   0  0  0  0  0
   -6.6620   -1.5430   32.7540 C   0  0  0  0  0
   -6.7260   -0.1000   32.2390 C   0  0  0  0  0
   -7.8780   -2.2990   32.2090 C   0  0  0  0  0
   -4.1550   -2.8940   34.2330 O   0  0  0  0  0
   -7.9100   -2.7650   31.0800 O   0  0  0  0  0
   -8.9360   -2.3980   33.0750 N   0  0  0  0  0
  -10.1770   -3.0790   32.6600 C   0  0  0  0  0
  -11.0690   -3.4600   33.8710 C   0  0  0  0  0
  -12.2430   -4.3610   33.4340 C   0  0  0  0  0
  -11.6220   -2.2120   34.5570 C   0  0  0  0  0
  -10.8820   -2.1360   31.6360 C   0  0  0  0  0
  -10.7850   -0.9330   31.7260 O   0  0  0  0  0
  -11.6110   -2.7780   30.6420 N   0  0  0  0  0
  -12.3520   -2.0350   29.5950 C   0  0  0  0  0
  -11.6910   -2.1750   28.1840 C   0  0  0  0  0
  -10.3120   -1.5090   28.1490 C   0  0  0  0  0
  -11.5290   -3.6470   27.8150 C   0  0  0  0  0
    1.6087   -5.9543   35.4794 H   0  0  0  0  0
    4.6027   -3.5275   35.1851 H   0  0  0  0  0
    3.1901   -2.4544   35.0295 H   0  0  0  0  0
    3.2201   -3.7092   36.2927 H   0  0  0  0  0
    2.5061   -6.8736   30.7343 H   0  0  0  0  0
    2.8789   -5.1441   30.2422 H   0  0  0  0  0
    1.2345   -8.2113   33.7420 H   0  0  0  0  0
   -0.1864   -7.1494   33.5859 H   0  0  0  0  0
    0.7141   -7.6509   32.1338 H   0  0  0  0  0
   -1.3468   -5.3760   29.6890 H   0  0  0  0  0
   -1.5065   -2.3831   30.0123 H   0  0  0  0  0
   -3.0272   -2.6912   27.9490 H   0  0  0  0  0
   -1.9196   -4.1410   27.6340 H   0  0  0  0  0
    0.0964   -4.0648   26.3764 H   0  0  0  0  0
    1.2066   -2.6745   26.3024 H   0  0  0  0  0
    0.9225   -3.5056   27.8515 H   0  0  0  0  0
   -2.1648   -3.7873   32.1109 H   0  0  0  0  0
   -4.9392   -4.8141   31.6276 H   0  0  0  0  0
   -5.8878   -3.8473   33.5833 H   0  0  0  0  0
   -4.6757   -5.9820   33.8619 H   0  0  0  0  0
   -2.9881   -5.3096   33.9455 H   0  0  0  0  0
   -2.4326   -6.5567   31.8923 H   0  0  0  0  0
   -5.1859   -7.8333   32.1661 H   0  0  0  0  0
   -4.6472   -6.7586   30.8523 H   0  0  0  0  0
   -3.9053   -8.3655   31.0489 H   0  0  0  0  0
   -2.0103   -7.5889   34.1309 H   0  0  0  0  0
   -3.6482   -8.2877   34.1219 H   0  0  0  0  0
   -2.4338   -8.8498   32.9470 H   0  0  0  0  0
   -5.4971   -2.5536   31.2632 H   0  0  0  0  0
   -4.5611   -1.4540   32.3309 H   0  0  0  0  0
   -6.6790   -1.5670   33.8436 H   0  0  0  0  0
   -5.8764    0.4613   32.6280 H   0  0  0  0  0
   -6.6932   -0.1026   31.1495 H   0  0  0  0  0
   -7.6537    0.3634   32.5747 H   0  0  0  0  0
   -3.9054   -3.6193   34.8103 H   0  0  0  0  0
   -8.8648   -1.9988   34.0109 H   0  0  0  0  0
   -9.9605   -4.0367   32.1866 H   0  0  0  0  0
  -10.4419   -4.0077   34.5745 H   0  0  0  0  0
  -12.8538   -3.8308   32.7033 H   0  0  0  0  0
  -11.8513   -5.2749   32.9874 H   0  0  0  0  0
  -12.8504   -4.6115   34.3037 H   0  0  0  0  0
  -10.7948   -1.5968   34.9110 H   0  0  0  0  0
  -12.2210   -1.6433   33.8458 H   0  0  0  0  0
  -12.2434   -2.5086   35.4020 H   0  0  0  0  0
  -11.6371   -3.7976   30.6326 H   0  0  0  0  0
  -12.3499   -0.9790   29.8653 H   0  0  0  0  0
  -13.3595   -2.4471   29.5380 H   0  0  0  0  0
  -12.3471   -1.6803   27.4679 H   0  0  0  0  0
  -10.4158   -0.4491   28.3811 H   0  0  0  0  0
   -9.6628   -1.9818   28.8860 H   0  0  0  0  0
   -9.8795   -1.6239   27.1551 H   0  0  0  0  0
  -10.8960   -4.1380   28.5541 H   0  0  0  0  0
  -12.5081   -4.1258   27.7977 H   0  0  0  0  0
  -11.0677   -3.7248   26.8305 H   0  0  0  0  0
  1  2  1  0  0  0
  1  5  2  0  0  0
  2  3  2  0  0  0
  2  6  1  0  0  0
  3  4  1  0  0  0
  4  5  1  0  0  0
  4  7  1  0  0  0
  5 10  1  0  0  0
  7  8  1  0  0  0
  8  9  1  0  0  0
  9 11  2  0  0  0
  9 12  1  0  0  0
 12 13  1  0  0  0
 13 14  1  0  0  0
 13 19  1  0  0  0
 14 15  1  0  0  0
 15 16  2  0  0  0
 15 17  2  0  0  0
 15 18  1  0  0  0
 19 20  2  0  0  0
 19 21  1  0  0  0
 21 22  1  0  0  0
 22 23  1  0  0  0
 22 24  1  0  0  0
 23 28  1  0  0  0
 23 32  1  0  0  0
 24 25  1  0  0  0
 25 26  1  0  0  0
 25 27  1  0  0  0
 28 29  1  0  0  0
 29 30  1  0  0  0
 29 31  1  0  0  0
 31 33  2  0  0  0
 31 34  1  0  0  0
 34 35  1  0  0  0
 35 36  1  0  0  0
 35 39  1  0  0  0
 36 37  1  0  0  0
 36 38  1  0  0  0
 39 40  2  0  0  0
 39 41  1  0  0  0
 41 42  1  0  0  0
 42 43  1  0  0  0
 43 44  1  0  0  0
 43 45  1  0  0  0
  1 46  1  0  0  0
  6 47  1  0  0  0
  6 48  1  0  0  0
  6 49  1  0  0  0
  7 50  1  0  0  0
  7 51  1  0  0  0
 10 52  1  0  0  0
 10 53  1  0  0  0
 10 54  1  0  0  0
 12 55  1  0  0  0
 13 56  1  0  0  0
 14 57  1  0  0  0
 14 58  1  0  0  0
 18 59  1  0  0  0
 18 60  1  0  0  0
 18 61  1  0  0  0
 21 62  1  0  0  0
 22 63  1  0  0  0
 23 64  1  0  0  0
 24 65  1  0  0  0
 24 66  1  0  0  0
 25 67  1  0  0  0
 26 68  1  0  0  0
 26 69  1  0  0  0
 26 70  1  0  0  0
 27 71  1  0  0  0
 27 72  1  0  0  0
 27 73  1  0  0  0
 28 74  1  0  0  0
 28 75  1  0  0  0
 29 76  1  0  0  0
 30 77  1  0  0  0
 30 78  1  0  0  0
 30 79  1  0  0  0
 32 80  1  0  0  0
 34 81  1  0  0  0
 35 82  1  0  0  0
 36 83  1  0  0  0
 37 84  1  0  0  0
 37 85  1  0  0  0
 37 86  1  0  0  0
 38 87  1  0  0  0
 38 88  1  0  0  0
 38 89  1  0  0  0
 41 90  1  0  0  0
 42 91  1  0  0  0
 42 92  1  0  0  0
 43 93  1  0  0  0
 44 94  1  0  0  0
 44 95  1  0  0  0
 44 96  1  0  0  0
 45 97  1  0  0  0
 45 98  1  0  0  0
 45 99  1  0  0  0
M  END
$$$$
