### 
### Created by X-TOOL on Sun Jun  3 11:24:51 2007
### 

@<TRIPOS>MOLECULE
2g94_ligand
   99    99     1     0     0
SMALL
GAST_HUCK


@<TRIPOS>ATOM
      1 C11         1.9840   -5.6010   34.5190 C.2       1 SUB1       -0.049
      2 C12         2.8960   -4.4190   34.3400 C.2       1 SUB1       -0.010
      3 N11         3.1050   -4.3720   32.7670 N.2       1 SUB1       -0.241
      4 N12         2.3600   -5.4370   32.2460 N.pl3     1 SUB1       -0.187
      5 C13         1.6920   -6.1680   33.3200 C.2       1 SUB1        0.062
      6 C14         3.5180   -3.4650   35.2730 C.3       1 SUB1       -0.031
      7 C15         2.2360   -5.8200   30.8060 C.3       1 SUB1        0.194
      8 O11         0.9210   -5.6910   30.2630 O.3       1 SUB1       -0.229
      9 C16         0.3730   -4.4380   30.1400 C.2       1 SUB1        0.325
     10 C17         0.8010   -7.3800   33.1860 C.3       1 SUB1       -0.003
     11 O12         0.9980   -3.3940   30.3070 O.2       1 SUB1       -0.377
     12 N2         -0.9370   -4.4500   29.8110 N.am      1 SUB1       -0.240
     13 C21        -1.8500   -3.3340   29.6050 C.3       1 SUB1        0.152
     14 C22        -2.0480   -3.1530   28.0760 C.3       1 SUB1        0.105
     15 S2         -0.8900   -2.0900   27.2550 S.o2      1 SUB1       -0.030
     16 O22        -1.5140   -1.6570   26.0290 O.2       1 SUB1       -0.174
     17 O23        -0.4950   -1.0130   28.1650 O.2       1 SUB1       -0.174
     18 C23         0.4660   -3.1910   26.9130 C.3       1 SUB1        0.055
     19 C25        -3.1140   -3.7990   30.2500 C.2       1 SUB1        0.204
     20 O2         -4.1370   -4.0120   29.6070 O.2       1 SUB1       -0.394
     21 N3         -3.0360   -3.9860   31.6190 N.am      1 SUB1       -0.280
     22 C31        -4.2220   -4.4770   32.3760 C.3       1 SUB1        0.068
     23 C32        -4.9840   -3.3880   33.1830 C.3       1 SUB1        0.080
     24 C33        -3.7950   -5.6640   33.3040 C.3       1 SUB1       -0.025
     25 C34        -3.2620   -6.9030   32.5090 C.3       1 SUB1       -0.045
     26 C35        -4.3290   -7.5100   31.5750 C.3       1 SUB1       -0.063
     27 C36        -2.8050   -7.9870   33.5000 C.3       1 SUB1       -0.063
     28 C37        -5.3600   -2.1940   32.2830 C.3       1 SUB1       -0.005
     29 C38        -6.6620   -1.5430   32.7540 C.3       1 SUB1        0.048
     30 C39        -6.7260   -0.1000   32.2390 C.3       1 SUB1       -0.045
     31 C30        -7.8780   -2.2990   32.2090 C.2       1 SUB1        0.181
     32 O31        -4.1550   -2.8940   34.2330 O.3       1 SUB1       -0.389
     33 O32        -7.9100   -2.7650   31.0800 O.2       1 SUB1       -0.397
     34 N4         -8.9360   -2.3980   33.0750 N.am      1 SUB1       -0.265
     35 C41       -10.1770   -3.0790   32.6600 C.3       1 SUB1        0.133
     36 C42       -11.0690   -3.4600   33.8710 C.3       1 SUB1       -0.006
     37 C43       -12.2430   -4.3610   33.4340 C.3       1 SUB1       -0.058
     38 C44       -11.6220   -2.2120   34.5570 C.3       1 SUB1       -0.058
     39 C45       -10.8820   -2.1360   31.6360 C.2       1 SUB1        0.202
     40 O4        -10.7850   -0.9330   31.7260 O.2       1 SUB1       -0.394
     41 N5        -11.6110   -2.7780   30.6420 N.am      1 SUB1       -0.285
     42 C51       -12.3520   -2.0350   29.5950 C.3       1 SUB1        0.033
     43 C52       -11.6910   -2.1750   28.1840 C.3       1 SUB1       -0.026
     44 C53       -10.3120   -1.5090   28.1490 C.3       1 SUB1       -0.061
     45 C54       -11.5290   -3.6470   27.8150 C.3       1 SUB1       -0.061
     46 H           1.6087   -5.9543   35.4794 H         1 SUB1        0.022
     47 H           4.6027   -3.5275   35.1851 H         1 SUB1        0.037
     48 H           3.1901   -2.4544   35.0295 H         1 SUB1        0.037
     49 H           3.2201   -3.7092   36.2927 H         1 SUB1        0.037
     50 H           2.5061   -6.8736   30.7343 H         1 SUB1        0.099
     51 H           2.8789   -5.1441   30.2422 H         1 SUB1        0.099
     52 H           1.2345   -8.2113   33.7420 H         1 SUB1        0.044
     53 H          -0.1864   -7.1494   33.5859 H         1 SUB1        0.044
     54 H           0.7141   -7.6509   32.1338 H         1 SUB1        0.044
     55 H          -1.3468   -5.3760   29.6890 H         1 SUB1        0.190
     56 H          -1.5065   -2.3831   30.0123 H         1 SUB1        0.082
     57 H          -3.0272   -2.6912   27.9490 H         1 SUB1        0.055
     58 H          -1.9196   -4.1410   27.6340 H         1 SUB1        0.055
     59 H           0.0964   -4.0648   26.3764 H         1 SUB1        0.046
     60 H           1.2066   -2.6745   26.3024 H         1 SUB1        0.046
     61 H           0.9225   -3.5056   27.8515 H         1 SUB1        0.046
     62 H          -2.1648   -3.7873   32.1109 H         1 SUB1        0.185
     63 H          -4.9392   -4.8141   31.6276 H         1 SUB1        0.058
     64 H          -5.8878   -3.8473   33.5833 H         1 SUB1        0.062
     65 H          -4.6757   -5.9820   33.8619 H         1 SUB1        0.029
     66 H          -2.9881   -5.3096   33.9455 H         1 SUB1        0.029
     67 H          -2.4326   -6.5567   31.8923 H         1 SUB1        0.030
     68 H          -5.1859   -7.8333   32.1661 H         1 SUB1        0.023
     69 H          -4.6472   -6.7586   30.8523 H         1 SUB1        0.023
     70 H          -3.9053   -8.3655   31.0489 H         1 SUB1        0.023
     71 H          -2.0103   -7.5889   34.1309 H         1 SUB1        0.023
     72 H          -3.6482   -8.2877   34.1219 H         1 SUB1        0.023
     73 H          -2.4338   -8.8498   32.9470 H         1 SUB1        0.023
     74 H          -5.4971   -2.5536   31.2632 H         1 SUB1        0.032
     75 H          -4.5611   -1.4540   32.3309 H         1 SUB1        0.032
     76 H          -6.6790   -1.5670   33.8436 H         1 SUB1        0.054
     77 H          -5.8764    0.4613   32.6280 H         1 SUB1        0.026
     78 H          -6.6932   -0.1026   31.1495 H         1 SUB1        0.026
     79 H          -7.6537    0.3634   32.5747 H         1 SUB1        0.026
     80 H          -3.9054   -3.6193   34.8103 H         1 SUB1        0.210
     81 H          -8.8648   -1.9988   34.0109 H         1 SUB1        0.188
     82 H          -9.9605   -4.0367   32.1866 H         1 SUB1        0.080
     83 H         -10.4419   -4.0077   34.5745 H         1 SUB1        0.034
     84 H         -12.8538   -3.8308   32.7033 H         1 SUB1        0.023
     85 H         -11.8513   -5.2749   32.9874 H         1 SUB1        0.023
     86 H         -12.8504   -4.6115   34.3037 H         1 SUB1        0.023
     87 H         -10.7948   -1.5968   34.9110 H         1 SUB1        0.023
     88 H         -12.2210   -1.6433   33.8458 H         1 SUB1        0.023
     89 H         -12.2434   -2.5086   35.4020 H         1 SUB1        0.023
     90 H         -11.6371   -3.7976   30.6326 H         1 SUB1        0.185
     91 H         -12.3499   -0.9790   29.8653 H         1 SUB1        0.052
     92 H         -13.3595   -2.4471   29.5380 H         1 SUB1        0.052
     93 H         -12.3471   -1.6803   27.4679 H         1 SUB1        0.032
     94 H         -10.4158   -0.4491   28.3811 H         1 SUB1        0.023
     95 H          -9.6628   -1.9818   28.8860 H         1 SUB1        0.023
     96 H          -9.8795   -1.6239   27.1551 H         1 SUB1        0.023
     97 H         -10.8960   -4.1380   28.5541 H         1 SUB1        0.023
     98 H         -12.5081   -4.1258   27.7977 H         1 SUB1        0.023
     99 H         -11.0677   -3.7248   26.8305 H         1 SUB1        0.023
@<TRIPOS>BOND
     1    1    2 1  
     2    1    5 2  
     3    2    3 2  
     4    2    6 1  
     5    3    4 1  
     6    4    5 1  
     7    4    7 1  
     8    5   10 1  
     9    7    8 1  
    10    8    9 1  
    11    9   11 2  
    12    9   12 am 
    13   12   13 1  
    14   13   14 1  
    15   13   19 1  
    16   14   15 1  
    17   15   16 2  
    18   15   17 2  
    19   15   18 1  
    20   19   20 2  
    21   19   21 am 
    22   21   22 1  
    23   22   23 1  
    24   22   24 1  
    25   23   28 1  
    26   23   32 1  
    27   24   25 1  
    28   25   26 1  
    29   25   27 1  
    30   28   29 1  
    31   29   30 1  
    32   29   31 1  
    33   31   33 2  
    34   31   34 am 
    35   34   35 1  
    36   35   36 1  
    37   35   39 1  
    38   36   37 1  
    39   36   38 1  
    40   39   40 2  
    41   39   41 am 
    42   41   42 1  
    43   42   43 1  
    44   43   44 1  
    45   43   45 1  
    46    1   46 1  
    47    6   47 1  
    48    6   48 1  
    49    6   49 1  
    50    7   50 1  
    51    7   51 1  
    52   10   52 1  
    53   10   53 1  
    54   10   54 1  
    55   12   55 1  
    56   13   56 1  
    57   14   57 1  
    58   14   58 1  
    59   18   59 1  
    60   18   60 1  
    61   18   61 1  
    62   21   62 1  
    63   22   63 1  
    64   23   64 1  
    65   24   65 1  
    66   24   66 1  
    67   25   67 1  
    68   26   68 1  
    69   26   69 1  
    70   26   70 1  
    71   27   71 1  
    72   27   72 1  
    73   27   73 1  
    74   28   74 1  
    75   28   75 1  
    76   29   76 1  
    77   30   77 1  
    78   30   78 1  
    79   30   79 1  
    80   32   80 1  
    81   34   81 1  
    82   35   82 1  
    83   36   83 1  
    84   37   84 1  
    85   37   85 1  
    86   37   86 1  
    87   38   87 1  
    88   38   88 1  
    89   38   89 1  
    90   41   90 1  
    91   42   91 1  
    92   42   92 1  
    93   43   93 1  
    94   44   94 1  
    95   44   95 1  
    96   44   96 1  
    97   45   97 1  
    98   45   98 1  
    99   45   99 1  
@<TRIPOS>SUBSTRUCTURE
     1 SUB1        1 GROUP

