### 
### Created by X-TOOL on Mon Oct 24 22:00:47 2005
### 

@<TRIPOS>MOLECULE
1o0m_ligand
   32    33     1     0     0
SMALL
GAST_HUCK


@<TRIPOS>ATOM
      1 O5'        39.7830    2.7300   22.6050 O.3       1 SUB1       -0.392
      2 C5'        40.3140    1.4790   23.0840 C.3       1 SUB1        0.073
      3 C4'        39.1940    0.5690   23.5380 C.3       1 SUB1        0.114
      4 O4'        38.4190    1.2290   24.5710 O.3       1 SUB1       -0.336
      5 C1'        37.0470    0.8860   24.4360 C.3       1 SUB1        0.210
      6 N1         36.2880    2.1300   24.2150 N.am      1 SUB1       -0.159
      7 C6         36.7540    3.1130   23.3700 C.2       1 SUB1        0.059
      8 C5         36.1120    4.2700   23.1800 C.2       1 SUB1        0.006
      9 C4         34.8870    4.5230   23.8700 C.2       1 SUB1        0.182
     10 O4         34.2240    5.5580   23.8050 O.2       1 SUB1       -0.412
     11 N3         34.4630    3.4950   24.6880 N.am      1 SUB1       -0.186
     12 C2         35.0910    2.2930   24.9000 C.2       1 SUB1        0.333
     13 O2         34.6200    1.4400   25.6360 O.2       1 SUB1       -0.382
     14 C2'        36.9510   -0.1680   23.3260 C.3       1 SUB1        0.160
     15 O2'        37.0610   -1.4360   23.9550 O.3       1 SUB1       -0.311
     16 P          36.4750   -2.7590   23.2470 P.3       1 SUB1        0.206
     17 O1P        37.2300   -2.9470   21.9400 O.co2     1 SUB1       -0.535
     18 O2P        36.7570   -3.8760   24.2380 O.co2     1 SUB1       -0.535
     19 O3P        34.9830   -2.5350   23.0430 O.co2     1 SUB1       -0.535
     20 C3'        38.1700    0.1940   22.4790 C.3       1 SUB1        0.119
     21 O3'        38.6490   -0.8970   21.6990 O.3       1 SUB1       -0.386
     22 H11        39.3014    3.1567   23.3039 H         1 SUB1        0.209
     23 H21        40.8670    0.9793   22.2751 H         1 SUB1        0.058
     24 H22        40.9835    1.6650   23.9367 H         1 SUB1        0.058
     25 H31        39.6403   -0.3590   23.9248 H         1 SUB1        0.065
     26 H51        36.6820    0.4189   25.3625 H         1 SUB1        0.100
     27 H71        37.6858    2.9401   22.8335 H         1 SUB1        0.118
     28 H81        36.5214    5.0171   22.5016 H         1 SUB1        0.026
     29 H111       33.6048    3.6420   25.1797 H         1 SUB1        0.226
     30 H141       36.0260   -0.0998   22.7347 H         1 SUB1        0.073
     31 H201       37.9514    1.0353   21.8050 H         1 SUB1        0.065
     32 H211       38.8981   -1.6108   22.2742 H         1 SUB1        0.210
@<TRIPOS>BOND
     1    1    2 1  
     2    2    3 1  
     3    3    4 1  
     4    3   20 1  
     5    4    5 1  
     6    5    6 1  
     7    5   14 1  
     8    6    7 am 
     9    6   12 am 
    10    7    8 2  
    11    8    9 1  
    12    9   10 2  
    13    9   11 am 
    14   11   12 am 
    15   12   13 2  
    16   14   15 1  
    17   14   20 1  
    18   15   16 1  
    19   16   17 2  
    20   16   18 2  
    21   16   19 2  
    22   20   21 1  
    23    1   22 1  
    24    2   23 1  
    25    2   24 1  
    26    3   25 1  
    27    5   26 1  
    28    7   27 1  
    29    8   28 1  
    30   11   29 1  
    31   14   30 1  
    32   20   31 1  
    33   21   32 1  
@<TRIPOS>SUBSTRUCTURE
     1 SUB1        1 GROUP

