1g45_ligand
  -I-interpret- 

 34 35  0  0  0  0  0  0  0  0999 V2000
   -2.9122    3.4936   14.2852 H   0  0  0  0  0
   -3.6151    1.4604   15.5601 H   0  0  0  0  0
   -3.9180    3.4410   14.6860 C   0  0  0  0  0
   -4.3030    2.2840   15.4070 C   0  0  0  0  0
   -5.6360    2.2460   15.9250 C   0  0  0  0  0
   -6.4850    3.3490   15.6910 C   0  0  0  0  0
   -6.0620    4.4710   14.9700 C   0  0  0  0  0
   -4.7860    4.5210   14.4700 C   0  0  0  0  0
   -4.3100    5.7250   13.6940 C   0  0  0  0  0
   -5.0740    6.6390   13.5200 O   0  0  0  0  0
   -3.0260    5.7820   13.1970 N   0  0  0  0  0
   -2.4130    6.8690   12.4430 C   0  0  0  0  0
   -6.1150    0.7670   16.8520 S   0  0  0  0  0
   -5.6910   -0.5790   16.1580 N   0  0  0  0  0
   -7.5940    1.0570   16.9230 O   0  0  0  0  0
   -5.5380    1.0750   18.1620 O   0  0  0  0  0
   -1.6820    7.8380   13.2000 C   0  0  0  0  0
   -2.2640    8.3240   14.4100 C   0  0  0  0  0
   -1.6080    9.2860   15.2280 C   0  0  0  0  0
   -0.3420    9.7690   14.8230 C   0  0  0  0  0
    0.2850    9.3050   13.6080 C   0  0  0  0  0
   -0.3940    8.3210   12.7780 C   0  0  0  0  0
    0.1690    7.8750   11.6460 F   0  0  0  0  0
   -7.4958    3.3261   16.0819 H   0  0  0  0  0
   -6.7418    5.2994   14.8069 H   0  0  0  0  0
   -2.4477    4.9856   13.3740 H   0  0  0  0  0
   -3.2151    7.3986   11.9082 H   0  0  0  0  0
   -1.7201    6.4217   11.7151 H   0  0  0  0  0
   -5.9107   -1.4614   16.5930 H   0  0  0  0  0
   -3.2344    7.9490   14.7145 H   0  0  0  0  0
   -2.0690    9.6412   16.1425 H   0  0  0  0  0
    0.1679   10.5024   15.4372 H   0  0  0  0  0
    1.2562    9.6875   13.3156 H   0  0  0  0  0
   -5.2034   -0.5595   15.2851 H   0  0  0  0  0
  3  8  4  0  0  0
  3  4  4  0  0  0
  4  5  4  0  0  0
  5 13  1  0  0  0
  5  6  4  0  0  0
  6  7  4  0  0  0
  7  8  4  0  0  0
  8  9  1  0  0  0
  9 11  1  0  0  0
  9 10  2  0  0  0
 11 12  1  0  0  0
 12 17  1  0  0  0
 17 22  4  0  0  0
 17 18  4  0  0  0
 18 19  4  0  0  0
 19 20  4  0  0  0
 20 21  4  0  0  0
 21 22  4  0  0  0
 13 16  2  0  0  0
 13 15  2  0  0  0
 13 14  1  0  0  0
 22 23  1  0  0  0
  3  1  1  0  0  0
  4  2  1  0  0  0
  6 24  1  0  0  0
  7 25  1  0  0  0
 11 26  1  0  0  0
 12 27  1  0  0  0
 12 28  1  0  0  0
 14 29  1  0  0  0
 18 30  1  0  0  0
 19 31  1  0  0  0
 20 32  1  0  0  0
 21 33  1  0  0  0
 14 34  1  0  0  0
M  END
$$$$
