### 
### Created by X-TOOL on Mon Oct 24 22:50:47 2005
### 

@<TRIPOS>MOLECULE
1g45_ligand
   34    35     1     0     0
SMALL
GAST_HUCK


@<TRIPOS>ATOM
      1 H31        -2.9122    3.4936   14.2852 H         1 SUB1        0.067
      2 H41        -3.6151    1.4604   15.5601 H         1 SUB1        0.065
      3 C01        -3.9180    3.4410   14.6860 C.ar      1 SUB1       -0.040
      4 C02        -4.3030    2.2840   15.4070 C.ar      1 SUB1       -0.030
      5 C03        -5.6360    2.2460   15.9250 C.ar      1 SUB1        0.112
      6 C04        -6.4850    3.3490   15.6910 C.ar      1 SUB1       -0.030
      7 C05        -6.0620    4.4710   14.9700 C.ar      1 SUB1       -0.040
      8 C06        -4.7860    4.5210   14.4700 C.ar      1 SUB1        0.050
      9 C07        -4.3100    5.7250   13.6940 C.2       1 SUB1        0.207
     10 O08        -5.0740    6.6390   13.5200 O.2       1 SUB1       -0.384
     11 N09        -3.0260    5.7820   13.1970 N.am      1 SUB1       -0.275
     12 C10        -2.4130    6.8690   12.4430 C.3       1 SUB1        0.065
     13 S11        -6.1150    0.7670   16.8520 S.o2      1 SUB1        0.068
     14 NP2        -5.6910   -0.5790   16.1580 N.am      1 SUB1       -0.261
     15 O13        -7.5940    1.0570   16.9230 O.2       1 SUB1       -0.150
     16 O14        -5.5380    1.0750   18.1620 O.2       1 SUB1       -0.150
     17 C15        -1.6820    7.8380   13.2000 C.ar      1 SUB1        0.013
     18 C16        -2.2640    8.3240   14.4100 C.ar      1 SUB1       -0.060
     19 C17        -1.6080    9.2860   15.2280 C.ar      1 SUB1       -0.072
     20 C18        -0.3420    9.7690   14.8230 C.ar      1 SUB1       -0.071
     21 C19         0.2850    9.3050   13.6080 C.ar      1 SUB1       -0.035
     22 C20        -0.3940    8.3210   12.7780 C.ar      1 SUB1        0.135
     23 F21         0.1690    7.8750   11.6460 F         1 SUB1       -0.189
     24 H61        -7.4958    3.3261   16.0819 H         1 SUB1        0.065
     25 H71        -6.7418    5.2994   14.8069 H         1 SUB1        0.067
     26 H111       -2.4477    4.9856   13.3740 H         1 SUB1        0.187
     27 H121       -3.2151    7.3986   11.9082 H         1 SUB1        0.068
     28 H122       -1.7201    6.4217   11.7151 H         1 SUB1        0.068
     29 H141       -5.9107   -1.4614   16.5930 H         1 SUB1        0.163
     30 H181       -3.2344    7.9490   14.7145 H         1 SUB1        0.055
     31 H191       -2.0690    9.6412   16.1425 H         1 SUB1        0.056
     32 H201        0.1679   10.5024   15.4372 H         1 SUB1        0.055
     33 H211        1.2562    9.6875   13.3156 H         1 SUB1        0.058
     34 H142       -5.2034   -0.5595   15.2851 H         1 SUB1        0.163
@<TRIPOS>BOND
     1    3    8 ar 
     2    3    4 ar 
     3    4    5 ar 
     4    5   13 1  
     5    5    6 ar 
     6    6    7 ar 
     7    7    8 ar 
     8    8    9 1  
     9    9   11 am 
    10    9   10 2  
    11   11   12 1  
    12   12   17 1  
    13   17   22 ar 
    14   17   18 ar 
    15   18   19 ar 
    16   19   20 ar 
    17   20   21 ar 
    18   21   22 ar 
    19   13   16 2  
    20   13   15 2  
    21   13   14 1  
    22   22   23 1  
    23    3    1 1  
    24    4    2 1  
    25    6   24 1  
    26    7   25 1  
    27   11   26 1  
    28   12   27 1  
    29   12   28 1  
    30   14   29 1  
    31   18   30 1  
    32   19   31 1  
    33   20   32 1  
    34   21   33 1  
    35   14   34 1  
@<TRIPOS>SUBSTRUCTURE
     1 SUB1        1 GROUP

