### 
### Created by X-TOOL on Tue Oct 25 00:19:39 2005
### 

@<TRIPOS>MOLECULE
1nfu_ligand
   50    53     1     0     0
SMALL
GAST_HUCK


@<TRIPOS>ATOM
      1 N29         7.7990    0.4050   16.6500 N.pl3     1 SUB1       -0.200
      2 C28         6.6810    1.0070   17.0690 C.cat     1 SUB1        0.315
      3 N30         5.6500    1.1520   16.2090 N.pl3     1 SUB1       -0.200
      4 C27         6.5450    1.5100   18.4550 C.ar      1 SUB1        0.179
      5 C26         5.6790    2.6020   18.7490 C.ar      1 SUB1       -0.004
      6 C24         5.5380    3.0890   20.0770 C.ar      1 SUB1       -0.016
      7 C22         6.2730    2.4720   21.1150 C.ar      1 SUB1       -0.058
      8 C23         7.1300    1.3950   20.8350 C.ar      1 SUB1       -0.064
      9 C25         7.2720    0.9110   19.5180 C.ar      1 SUB1       -0.014
     10 C21         4.6130    4.2550   20.3660 C.3       1 SUB1        0.068
     11 N2          5.2400    5.3030   21.2030 N.am      1 SUB1       -0.259
     12 C8          4.9050    5.4240   22.5450 C.2       1 SUB1        0.199
     13 O1          4.0950    4.6980   23.1190 O.2       1 SUB1       -0.395
     14 C4          5.6160    6.5420   23.3200 C.3       1 SUB1        0.119
     15 N1          5.9860    7.7240   22.4970 N.am      1 SUB1       -0.212
     16 C7          6.8820    7.2660   21.3990 C.3       1 SUB1        0.053
     17 C2          6.2230    6.1930   20.5160 C.3       1 SUB1        0.053
     18 S4          6.5220    9.0100   23.3700 S.o2      1 SUB1        0.085
     19 O8          6.7240   10.0460   22.4060 O.2       1 SUB1       -0.148
     20 O9          5.5370    9.2960   24.3990 O.2       1 SUB1       -0.148
     21 C1          8.0180    8.5900   24.0920 C.2       1 SUB1        0.167
     22 C3          8.0470    7.9730   25.3790 C.2       1 SUB1       -0.033
     23 C6          9.4290    7.7150   25.7380 C.ar      1 SUB1       -0.023
     24 C5         10.3100    8.1500   24.7190 C.ar      1 SUB1        0.040
     25 S2          9.5610    8.8390   23.3840 S.3       1 SUB1       -0.009
     26 C10        11.7310    7.9480   24.9430 C.ar      1 SUB1       -0.036
     27 C14        12.1760    7.3380   26.1300 C.ar      1 SUB1        0.032
     28 CL         13.8710    7.1120   26.3290 Cl        1 SUB1       -0.076
     29 C15        11.2610    6.9150   27.1380 C.ar      1 SUB1       -0.058
     30 C11         9.8670    7.1140   26.9230 C.ar      1 SUB1       -0.066
     31 H11         8.5934    0.2875   17.2950 H         1 SUB1        0.192
     32 H12         7.8658    0.0588   15.6822 H         1 SUB1        0.192
     33 H31         4.7827    1.6137   16.5180 H         1 SUB1        0.192
     34 H32         5.7309    0.8009   15.2441 H         1 SUB1        0.192
     35 H51         5.1185    3.0691   17.9473 H         1 SUB1        0.060
     36 H71         6.1747    2.8321   22.1327 H         1 SUB1        0.056
     37 H81         7.6883    0.9308   21.6399 H         1 SUB1        0.060
     38 H91         7.9378    0.0796   19.3165 H         1 SUB1        0.061
     39 H101        4.3130    4.7164   19.4136 H         1 SUB1        0.069
     40 H102        3.7254    3.8823   20.8982 H         1 SUB1        0.069
     41 H141        4.9493    6.8907   24.1224 H         1 SUB1        0.072
     42 H142        6.5418    6.1345   23.7522 H         1 SUB1        0.072
     43 H161        7.1382    8.1248   20.7613 H         1 SUB1        0.050
     44 H162        7.7960    6.8370   21.8353 H         1 SUB1        0.050
     45 H171        7.0288    5.5658   20.1070 H         1 SUB1        0.054
     46 H172        5.7032    6.7154   19.6994 H         1 SUB1        0.054
     47 H221        7.1770    7.7356   25.9895 H         1 SUB1        0.044
     48 H261       12.4484    8.2672   24.1956 H         1 SUB1        0.058
     49 H291       11.6190    6.4511   28.0500 H         1 SUB1        0.056
     50 H301        9.1497    6.8016   27.6732 H         1 SUB1        0.057
@<TRIPOS>BOND
     1    1    2 1  
     2    2    3 1  
     3    2    4 1  
     4    4    5 ar 
     5    4    9 ar 
     6    5    6 ar 
     7    6    7 ar 
     8    6   10 1  
     9    7    8 ar 
    10    8    9 ar 
    11   10   11 1  
    12   11   12 am 
    13   11   17 1  
    14   12   13 2  
    15   12   14 1  
    16   14   15 1  
    17   15   16 1  
    18   15   18 am 
    19   16   17 1  
    20   18   19 2  
    21   18   20 2  
    22   18   21 1  
    23   21   22 2  
    24   21   25 1  
    25   22   23 1  
    26   23   24 ar 
    27   23   30 ar 
    28   24   25 1  
    29   24   26 ar 
    30   26   27 ar 
    31   27   28 1  
    32   27   29 ar 
    33   29   30 ar 
    34    1   31 1  
    35    1   32 1  
    36    3   33 1  
    37    3   34 1  
    38    5   35 1  
    39    7   36 1  
    40    8   37 1  
    41    9   38 1  
    42   10   39 1  
    43   10   40 1  
    44   14   41 1  
    45   14   42 1  
    46   16   43 1  
    47   16   44 1  
    48   17   45 1  
    49   17   46 1  
    50   22   47 1  
    51   26   48 1  
    52   29   49 1  
    53   30   50 1  
@<TRIPOS>SUBSTRUCTURE
     1 SUB1        1 GROUP

