1jys_ligand
  -I-interpret- 

 15 16  0  0  0  0  0  0  0  0999 V2000
   -7.2690  -38.5160   -0.5560 N   0  0  0  0  0
   -7.1530  -37.9600   -1.7750 C   0  0  0  0  0
   -6.1740  -37.0530   -1.8720 N   0  0  0  0  0
   -5.6320  -37.0380   -0.6110 C   0  0  0  0  0
   -4.5680  -36.3110   -0.0170 C   0  0  0  0  0
   -3.8590  -35.4220   -0.7110 N   0  0  0  0  0
   -4.2920  -36.5620    1.3210 N   0  0  0  0  0
   -5.0260  -37.4710    2.0100 C   0  0  0  0  0
   -6.0590  -38.2140    1.5360 N   0  0  0  0  0
   -6.3000  -37.9380    0.2120 C   0  0  0  0  0
   -7.9495  -39.2312   -0.2622 H   0  0  0  0  0
   -7.7995  -38.2248   -2.6104 H   0  0  0  0  0
   -3.0915  -34.9073   -0.2561 H   0  0  0  0  0
   -4.0784  -35.2493   -1.7024 H   0  0  0  0  0
   -4.7595  -37.6203    3.0501 H   0  0  0  0  0
  1  2  1  0  0  0
  1 10  1  0  0  0
  2  3  2  0  0  0
  3  4  1  0  0  0
  4  5  4  0  0  0
  4 10  4  0  0  0
  5  6  1  0  0  0
  5  7  4  0  0  0
  7  8  4  0  0  0
  8  9  4  0  0  0
  9 10  4  0  0  0
  1 11  1  0  0  0
  2 12  1  0  0  0
  6 13  1  0  0  0
  6 14  1  0  0  0
  8 15  1  0  0  0
M  END
$$$$
