1zhy_ligand
  -I-interpret- 

 74 77  0  0  0  0  0  0  0  0999 V2000
   57.7400   36.0540   33.4270 C   0  0  0  0  0
   57.7820   36.1530   34.9560 C   0  0  0  0  0
   56.3760   36.0200   35.5470 C   0  0  0  0  0
   55.7960   34.6540   35.1730 C   0  0  0  0  0
   55.8600   34.4410   33.6580 C   0  0  0  0  0
   54.7230   34.0100   32.9840 C   0  0  0  0  0
   54.6060   33.8010   31.6150 C   0  0  0  0  0
   55.9620   33.7420   30.9020 C   0  0  0  0  0
   56.9070   34.8450   31.3980 C   0  0  0  0  0
   57.1660   34.7310   32.9070 C   0  0  0  0  0
   58.2000   34.8910   30.5720 C   0  0  0  0  0
   57.9480   34.9520   29.0590 C   0  0  0  0  0
   57.0630   33.7850   28.6110 C   0  0  0  0  0
   55.7530   33.8960   29.3930 C   0  0  0  0  0
   54.8930   32.8320   28.7130 C   0  0  0  0  0
   55.1270   33.1900   27.2420 C   0  0  0  0  0
   56.4720   33.9260   27.2040 C   0  0  0  0  0
   57.7540   32.4310   28.8240 C   0  0  0  0  0
   58.1370   33.5840   33.2050 C   0  0  0  0  0
   57.3590   33.4520   26.0460 C   0  0  0  0  0
   58.6160   34.3190   25.9510 C   0  0  0  0  0
   56.5810   33.5110   24.7270 C   0  0  0  0  0
   57.3250   32.8640   23.5550 C   0  0  0  0  0
   56.5200   32.9270   22.2530 C   0  0  0  0  0
   55.2910   32.0110   22.2620 C   0  0  0  0  0
   54.6480   31.9210   20.8760 C   0  0  0  0  0
   54.2580   32.4620   23.2970 C   0  0  0  0  0
   56.4380   36.1370   36.9710 O   0  0  0  0  0
   58.7670   36.1254   33.0687 H   0  0  0  0  0
   57.0913   36.8528   33.0677 H   0  0  0  0  0
   58.1904   37.1244   35.2347 H   0  0  0  0  0
   58.4045   35.3467   35.3439 H   0  0  0  0  0
   55.7398   36.8102   35.1482 H   0  0  0  0  0
   54.7549   34.6116   35.4930 H   0  0  0  0  0
   56.3785   33.8751   35.6651 H   0  0  0  0  0
   53.8366   33.8171   33.5884 H   0  0  0  0  0
   54.0465   34.6380   31.1972 H   0  0  0  0  0
   54.1097   32.8421   31.4660 H   0  0  0  0  0
   56.4179   32.7771   31.1240 H   0  0  0  0  0
   56.4105   35.8032   31.2453 H   0  0  0  0  0
   58.7566   33.9767   30.7779 H   0  0  0  0  0
   58.7405   35.7946   30.8539 H   0  0  0  0  0
   58.9041   34.8893   28.5394 H   0  0  0  0  0
   57.4428   35.8886   28.8231 H   0  0  0  0  0
   55.2701   34.8726   29.3602 H   0  0  0  0  0
   53.8458   32.8426   29.0152 H   0  0  0  0  0
   55.1602   31.8076   28.9723 H   0  0  0  0  0
   54.3219   33.8120   26.8509 H   0  0  0  0  0
   55.1427   32.2996   26.6134 H   0  0  0  0  0
   56.3672   34.9871   26.9778 H   0  0  0  0  0
   58.6783   32.4015   28.2470 H   0  0  0  0  0
   57.9806   32.3027   29.8824 H   0  0  0  0  0
   57.0920   31.6307   28.4933 H   0  0  0  0  0
   57.7103   32.6465   32.8485 H   0  0  0  0  0
   59.0836   33.7700   32.6977 H   0  0  0  0  0
   58.3055   33.5224   34.2801 H   0  0  0  0  0
   57.6572   32.4208   26.2352 H   0  0  0  0  0
   58.3283   35.3561   25.7784 H   0  0  0  0  0
   59.1771   34.2465   26.8827 H   0  0  0  0  0
   59.2350   33.9699   25.1245 H   0  0  0  0  0
   56.4293   34.5620   24.4809 H   0  0  0  0  0
   55.6499   32.9625   24.8691 H   0  0  0  0  0
   57.4946   31.8152   23.7985 H   0  0  0  0  0
   58.2576   33.4076   23.4038 H   0  0  0  0  0
   57.1722   32.5987   21.4438 H   0  0  0  0  0
   56.1690   33.9515   22.1295 H   0  0  0  0  0
   55.6407   31.0174   22.5422 H   0  0  0  0  0
   54.3356   32.9152   20.5566 H   0  0  0  0  0
   55.3720   31.5208   20.1663 H   0  0  0  0  0
   53.7801   31.2632   20.9215 H   0  0  0  0  0
   54.7081   32.4437   24.2895 H   0  0  0  0  0
   53.9304   33.4751   23.0639 H   0  0  0  0  0
   53.4023   31.7873   23.2722 H   0  0  0  0  0
   56.8019   36.9940   37.2050 H   0  0  0  0  0
  1  2  1  0  0  0
  1 10  1  0  0  0
  2  3  1  0  0  0
  3  4  1  0  0  0
  3 28  1  0  0  0
  4  5  1  0  0  0
  5  6  2  0  0  0
  5 10  1  0  0  0
  6  7  1  0  0  0
  7  8  1  0  0  0
  8  9  1  0  0  0
  8 14  1  0  0  0
  9 10  1  0  0  0
  9 11  1  0  0  0
 10 19  1  0  0  0
 11 12  1  0  0  0
 12 13  1  0  0  0
 13 14  1  0  0  0
 13 17  1  0  0  0
 13 18  1  0  0  0
 14 15  1  0  0  0
 15 16  1  0  0  0
 16 17  1  0  0  0
 17 20  1  0  0  0
 20 21  1  0  0  0
 20 22  1  0  0  0
 22 23  1  0  0  0
 23 24  1  0  0  0
 24 25  1  0  0  0
 25 26  1  0  0  0
 25 27  1  0  0  0
  1 29  1  0  0  0
  1 30  1  0  0  0
  2 31  1  0  0  0
  2 32  1  0  0  0
  3 33  1  0  0  0
  4 34  1  0  0  0
  4 35  1  0  0  0
  6 36  1  0  0  0
  7 37  1  0  0  0
  7 38  1  0  0  0
  8 39  1  0  0  0
  9 40  1  0  0  0
 11 41  1  0  0  0
 11 42  1  0  0  0
 12 43  1  0  0  0
 12 44  1  0  0  0
 14 45  1  0  0  0
 15 46  1  0  0  0
 15 47  1  0  0  0
 16 48  1  0  0  0
 16 49  1  0  0  0
 17 50  1  0  0  0
 18 51  1  0  0  0
 18 52  1  0  0  0
 18 53  1  0  0  0
 19 54  1  0  0  0
 19 55  1  0  0  0
 19 56  1  0  0  0
 20 57  1  0  0  0
 21 58  1  0  0  0
 21 59  1  0  0  0
 21 60  1  0  0  0
 22 61  1  0  0  0
 22 62  1  0  0  0
 23 63  1  0  0  0
 23 64  1  0  0  0
 24 65  1  0  0  0
 24 66  1  0  0  0
 25 67  1  0  0  0
 26 68  1  0  0  0
 26 69  1  0  0  0
 26 70  1  0  0  0
 27 71  1  0  0  0
 27 72  1  0  0  0
 27 73  1  0  0  0
 28 74  1  0  0  0
M  END
$$$$
