### 
### Created by X-TOOL on Sun Jun  3 11:15:41 2007
### 

@<TRIPOS>MOLECULE
1zhy_ligand
   74    77     1     0     0
SMALL
GAST_HUCK


@<TRIPOS>ATOM
      1 C1         57.7400   36.0540   33.4270 C.3       1 SUB1       -0.090
      2 C2         57.7820   36.1530   34.9560 C.3       1 SUB1       -0.038
      3 C3         56.3760   36.0200   35.5470 C.3       1 SUB1        0.062
      4 C4         55.7960   34.6540   35.1730 C.3       1 SUB1       -0.002
      5 C5         55.8600   34.4410   33.6580 C.2       1 SUB1       -0.065
      6 C6         54.7230   34.0100   32.9840 C.2       1 SUB1       -0.013
      7 C7         54.6060   33.8010   31.6150 C.3       1 SUB1        0.023
      8 C8         55.9620   33.7420   30.9020 C.3       1 SUB1       -0.022
      9 C9         56.9070   34.8450   31.3980 C.3       1 SUB1       -0.073
     10 C10        57.1660   34.7310   32.9070 C.3       1 SUB1       -0.067
     11 C11        58.2000   34.8910   30.5720 C.3       1 SUB1       -0.062
     12 C12        57.9480   34.9520   29.0590 C.3       1 SUB1       -0.048
     13 C13        57.0630   33.7850   28.6110 C.3       1 SUB1       -0.026
     14 C14        55.7530   33.8960   29.3930 C.3       1 SUB1       -0.029
     15 C15        54.8930   32.8320   28.7130 C.3       1 SUB1       -0.049
     16 C16        55.1270   33.1900   27.2420 C.3       1 SUB1       -0.049
     17 C17        56.4720   33.9260   27.2040 C.3       1 SUB1       -0.033
     18 C18        57.7540   32.4310   28.8240 C.3       1 SUB1       -0.059
     19 C19        58.1370   33.5840   33.2050 C.3       1 SUB1       -0.104
     20 C20        57.3590   33.4520   26.0460 C.3       1 SUB1       -0.041
     21 C21        58.6160   34.3190   25.9510 C.3       1 SUB1       -0.062
     22 C22        56.5810   33.5110   24.7270 C.3       1 SUB1       -0.050
     23 C23        57.3250   32.8640   23.5550 C.3       1 SUB1       -0.053
     24 C24        56.5200   32.9270   22.2530 C.3       1 SUB1       -0.051
     25 C25        55.2910   32.0110   22.2620 C.3       1 SUB1       -0.047
     26 C26        54.6480   31.9210   20.8760 C.3       1 SUB1       -0.063
     27 C27        54.2580   32.4620   23.2970 C.3       1 SUB1       -0.063
     28 O1         56.4380   36.1370   36.9710 O.3       1 SUB1       -0.390
     29 H          58.7670   36.1254   33.0687 H         1 SUB1        0.010
     30 H          57.0913   36.8528   33.0677 H         1 SUB1        0.010
     31 H          58.1904   37.1244   35.2347 H         1 SUB1        0.028
     32 H          58.4045   35.3467   35.3439 H         1 SUB1        0.028
     33 H          55.7398   36.8102   35.1482 H         1 SUB1        0.061
     34 H          54.7549   34.6116   35.4930 H         1 SUB1        0.043
     35 H          56.3785   33.8751   35.6651 H         1 SUB1        0.043
     36 H          53.8366   33.8171   33.5884 H         1 SUB1        0.147
     37 H          54.0465   34.6380   31.1972 H         1 SUB1        0.068
     38 H          54.1097   32.8421   31.4660 H         1 SUB1        0.068
     39 H          56.4179   32.7771   31.1240 H         1 SUB1        0.035
     40 H          56.4105   35.8032   31.2453 H         1 SUB1        0.015
     41 H          58.7566   33.9767   30.7779 H         1 SUB1        0.026
     42 H          58.7405   35.7946   30.8539 H         1 SUB1        0.026
     43 H          58.9041   34.8893   28.5394 H         1 SUB1        0.027
     44 H          57.4428   35.8886   28.8231 H         1 SUB1        0.027
     45 H          55.2701   34.8726   29.3602 H         1 SUB1        0.031
     46 H          53.8458   32.8426   29.0152 H         1 SUB1        0.027
     47 H          55.1602   31.8076   28.9723 H         1 SUB1        0.027
     48 H          54.3219   33.8120   26.8509 H         1 SUB1        0.027
     49 H          55.1427   32.2996   26.6134 H         1 SUB1        0.027
     50 H          56.3672   34.9871   26.9778 H         1 SUB1        0.031
     51 H          58.6783   32.4015   28.2470 H         1 SUB1        0.023
     52 H          57.9806   32.3027   29.8824 H         1 SUB1        0.023
     53 H          57.0920   31.6307   28.4933 H         1 SUB1        0.023
     54 H          57.7103   32.6465   32.8485 H         1 SUB1        0.007
     55 H          59.0836   33.7700   32.6977 H         1 SUB1        0.007
     56 H          58.3055   33.5224   34.2801 H         1 SUB1        0.007
     57 H          57.6572   32.4208   26.2352 H         1 SUB1        0.030
     58 H          58.3283   35.3561   25.7784 H         1 SUB1        0.023
     59 H          59.1771   34.2465   26.8827 H         1 SUB1        0.023
     60 H          59.2350   33.9699   25.1245 H         1 SUB1        0.023
     61 H          56.4293   34.5620   24.4809 H         1 SUB1        0.027
     62 H          55.6499   32.9625   24.8691 H         1 SUB1        0.027
     63 H          57.4946   31.8152   23.7985 H         1 SUB1        0.026
     64 H          58.2576   33.4076   23.4038 H         1 SUB1        0.026
     65 H          57.1722   32.5987   21.4438 H         1 SUB1        0.027
     66 H          56.1690   33.9515   22.1295 H         1 SUB1        0.027
     67 H          55.6407   31.0174   22.5422 H         1 SUB1        0.030
     68 H          54.3356   32.9152   20.5566 H         1 SUB1        0.023
     69 H          55.3720   31.5208   20.1663 H         1 SUB1        0.023
     70 H          53.7801   31.2632   20.9215 H         1 SUB1        0.023
     71 H          54.7081   32.4437   24.2895 H         1 SUB1        0.023
     72 H          53.9304   33.4751   23.0639 H         1 SUB1        0.023
     73 H          53.4023   31.7873   23.2722 H         1 SUB1        0.023
     74 H          56.8019   36.9940   37.2050 H         1 SUB1        0.210
@<TRIPOS>BOND
     1    1    2 1  
     2    1   10 1  
     3    2    3 1  
     4    3    4 1  
     5    3   28 1  
     6    4    5 1  
     7    5    6 2  
     8    5   10 1  
     9    6    7 1  
    10    7    8 1  
    11    8    9 1  
    12    8   14 1  
    13    9   10 1  
    14    9   11 1  
    15   10   19 1  
    16   11   12 1  
    17   12   13 1  
    18   13   14 1  
    19   13   17 1  
    20   13   18 1  
    21   14   15 1  
    22   15   16 1  
    23   16   17 1  
    24   17   20 1  
    25   20   21 1  
    26   20   22 1  
    27   22   23 1  
    28   23   24 1  
    29   24   25 1  
    30   25   26 1  
    31   25   27 1  
    32    1   29 1  
    33    1   30 1  
    34    2   31 1  
    35    2   32 1  
    36    3   33 1  
    37    4   34 1  
    38    4   35 1  
    39    6   36 1  
    40    7   37 1  
    41    7   38 1  
    42    8   39 1  
    43    9   40 1  
    44   11   41 1  
    45   11   42 1  
    46   12   43 1  
    47   12   44 1  
    48   14   45 1  
    49   15   46 1  
    50   15   47 1  
    51   16   48 1  
    52   16   49 1  
    53   17   50 1  
    54   18   51 1  
    55   18   52 1  
    56   18   53 1  
    57   19   54 1  
    58   19   55 1  
    59   19   56 1  
    60   20   57 1  
    61   21   58 1  
    62   21   59 1  
    63   21   60 1  
    64   22   61 1  
    65   22   62 1  
    66   23   63 1  
    67   23   64 1  
    68   24   65 1  
    69   24   66 1  
    70   25   67 1  
    71   26   68 1  
    72   26   69 1  
    73   26   70 1  
    74   27   71 1  
    75   27   72 1  
    76   27   73 1  
    77   28   74 1  
@<TRIPOS>SUBSTRUCTURE
     1 SUB1        1 GROUP

