### 
### Created by X-TOOL on Sun Jun  3 12:27:58 2007
### 

@<TRIPOS>MOLECULE
2fzc_ligand
   28    27     1     0     0
SMALL
GAST_HUCK


@<TRIPOS>ATOM
      1 OAD        43.9000   28.8450   19.8860 O.2       1 SUB1       -0.229
      2 PAR        45.0640   29.7360   19.2190 P.3       1 SUB1        0.493
      3 OAH        44.9990   31.1810   19.9280 O.2       1 SUB1       -0.229
      4 OAG        46.3990   29.1130   19.3640 O.2       1 SUB1       -0.229
      5 CAL        44.6130   29.9730   17.4830 C.3       1 SUB1        0.180
      6 CAP        43.1100   29.9490   17.1570 C.2       1 SUB1        0.199
      7 OAB        42.5070   30.9910   16.9300 O.2       1 SUB1       -0.395
      8 NAN        42.5660   28.7380   17.1040 N.am      1 SUB1       -0.284
      9 CAJ        41.1560   28.4780   16.7570 C.3       1 SUB1        0.051
     10 CAI        40.2370   28.4380   17.9790 C.3       1 SUB1        0.051
     11 NAM        39.5550   29.7360   18.0740 N.am      1 SUB1       -0.284
     12 CAO        39.3290   30.4010   19.2060 C.2       1 SUB1        0.199
     13 OAA        38.8590   31.5390   19.2290 O.2       1 SUB1       -0.395
     14 CAK        39.8080   29.7370   20.4980 C.3       1 SUB1        0.180
     15 PAQ        41.4480   30.3720   20.9160 P.3       1 SUB1        0.493
     16 OAF        41.1920   31.5600   21.9730 O.2       1 SUB1       -0.229
     17 OAE        42.0120   31.0590   19.5720 O.2       1 SUB1       -0.229
     18 OAC        42.3530   29.3250   21.4400 O.2       1 SUB1       -0.229
     19 H          45.0539   29.1376   16.9391 H         1 SUB1        0.076
     20 H          44.9655   30.9682   17.2120 H         1 SUB1        0.076
     21 H          43.1610   27.9373   17.3167 H         1 SUB1        0.185
     22 H          41.1077   27.5024   16.2733 H         1 SUB1        0.054
     23 H          40.8174   29.2900   16.1135 H         1 SUB1        0.054
     24 H          40.8177   28.2498   18.8820 H         1 SUB1        0.054
     25 H          39.5073   27.6348   17.8764 H         1 SUB1        0.054
     26 H          39.2293   30.1609   17.2058 H         1 SUB1        0.185
     27 H          39.8573   28.6570   20.3590 H         1 SUB1        0.076
     28 H          39.1111   29.9609   21.3057 H         1 SUB1        0.076
@<TRIPOS>BOND
     1    1    2 2  
     2    2    3 2  
     3    2    4 2  
     4    2    5 1  
     5    5    6 1  
     6    6    7 2  
     7    6    8 am 
     8    8    9 1  
     9    9   10 1  
    10   10   11 1  
    11   11   12 am 
    12   12   13 2  
    13   12   14 1  
    14   14   15 1  
    15   15   16 2  
    16   15   17 2  
    17   15   18 2  
    18    5   19 1  
    19    5   20 1  
    20    8   21 1  
    21    9   22 1  
    22    9   23 1  
    23   10   24 1  
    24   10   25 1  
    25   11   26 1  
    26   14   27 1  
    27   14   28 1  
@<TRIPOS>SUBSTRUCTURE
     1 SUB1        1 GROUP

