2fzc_ligand
  -I-interpret- 

 28 27  0  0  0  0  0  0  0  0999 V2000
   43.9000   28.8450   19.8860 O   0  5  0  0  0
   45.0640   29.7360   19.2190 P   0  0  0  0  0
   44.9990   31.1810   19.9280 O   0  5  0  0  0
   46.3990   29.1130   19.3640 O   0  0  0  0  0
   44.6130   29.9730   17.4830 C   0  0  0  0  0
   43.1100   29.9490   17.1570 C   0  0  0  0  0
   42.5070   30.9910   16.9300 O   0  0  0  0  0
   42.5660   28.7380   17.1040 N   0  0  0  0  0
   41.1560   28.4780   16.7570 C   0  0  0  0  0
   40.2370   28.4380   17.9790 C   0  0  0  0  0
   39.5550   29.7360   18.0740 N   0  0  0  0  0
   39.3290   30.4010   19.2060 C   0  0  0  0  0
   38.8590   31.5390   19.2290 O   0  0  0  0  0
   39.8080   29.7370   20.4980 C   0  0  0  0  0
   41.4480   30.3720   20.9160 P   0  0  0  0  0
   41.1920   31.5600   21.9730 O   0  5  0  0  0
   42.0120   31.0590   19.5720 O   0  5  0  0  0
   42.3530   29.3250   21.4400 O   0  0  0  0  0
   45.0539   29.1376   16.9391 H   0  0  0  0  0
   44.9655   30.9682   17.2120 H   0  0  0  0  0
   43.1610   27.9373   17.3167 H   0  0  0  0  0
   41.1077   27.5024   16.2733 H   0  0  0  0  0
   40.8174   29.2900   16.1135 H   0  0  0  0  0
   40.8177   28.2498   18.8820 H   0  0  0  0  0
   39.5073   27.6348   17.8764 H   0  0  0  0  0
   39.2293   30.1609   17.2058 H   0  0  0  0  0
   39.8573   28.6570   20.3590 H   0  0  0  0  0
   39.1111   29.9609   21.3057 H   0  0  0  0  0
  1  2  1  0  0  0
  2  3  1  0  0  0
  2  4  2  0  0  0
  2  5  1  0  0  0
  5  6  1  0  0  0
  6  7  2  0  0  0
  6  8  1  0  0  0
  8  9  1  0  0  0
  9 10  1  0  0  0
 10 11  1  0  0  0
 11 12  1  0  0  0
 12 13  2  0  0  0
 12 14  1  0  0  0
 14 15  1  0  0  0
 15 16  1  0  0  0
 15 17  1  0  0  0
 15 18  2  0  0  0
  5 19  1  0  0  0
  5 20  1  0  0  0
  8 21  1  0  0  0
  9 22  1  0  0  0
  9 23  1  0  0  0
 10 24  1  0  0  0
 10 25  1  0  0  0
 11 26  1  0  0  0
 14 27  1  0  0  0
 14 28  1  0  0  0
M  END
$$$$
