### 
### Created by X-TOOL on Tue Oct 25 02:42:04 2005
### 

@<TRIPOS>MOLECULE
1pr5_ligand
   33    35     1     0     0
SMALL
GAST_HUCK


@<TRIPOS>ATOM
      1 O5'        93.1020   65.3430   17.0350 O.3       1 SUB1       -0.392
      2 C5'        92.9520   64.2410   17.9490 C.3       1 SUB1        0.073
      3 C4'        93.3630   64.6330   19.3910 C.3       1 SUB1        0.113
      4 O4'        93.0510   65.9980   19.6980 O.3       1 SUB1       -0.337
      5 C1'        91.8750   66.0560   20.5210 C.3       1 SUB1        0.196
      6 N9         90.8320   66.7750   19.7220 N.pl3     1 SUB1       -0.224
      7 C8         90.7280   68.1580   19.5650 C.2       1 SUB1        0.030
      8 C7         89.6670   68.4780   18.7670 C.2       1 SUB1       -0.054
      9 C5         89.0920   67.2960   18.4130 C.ar      1 SUB1        0.043
     10 C6         87.9540   67.1120   17.5810 C.ar      1 SUB1        0.116
     11 N1         87.6000   65.7900   17.3980 N.ar      1 SUB1       -0.273
     12 C2         88.3190   64.7970   17.9910 C.ar      1 SUB1        0.050
     13 N3         89.4130   64.9040   18.7920 N.ar      1 SUB1       -0.277
     14 C4         89.7640   66.2270   18.9720 C.ar      1 SUB1        0.140
     15 N6         87.2630   68.1100   17.0060 N.pl3     1 SUB1       -0.316
     16 C2'        91.6160   64.6470   21.0890 C.3       1 SUB1        0.138
     17 O2'        91.8140   64.7190   22.5020 O.3       1 SUB1       -0.384
     18 C3'        92.6290   63.7410   20.3970 C.3       1 SUB1        0.115
     19 O3'        93.5020   63.0550   21.3100 O.3       1 SUB1       -0.386
     20 H11        92.5524   66.0645   17.3177 H         1 SUB1        0.209
     21 H21        91.8993   63.9224   17.9640 H         1 SUB1        0.058
     22 H22        93.5914   63.4080   17.6215 H         1 SUB1        0.058
     23 H31        94.4455   64.4756   19.5067 H         1 SUB1        0.065
     24 H51        92.0818   66.6836   21.4003 H         1 SUB1        0.099
     25 H71        91.4019   68.8838   20.0177 H         1 SUB1        0.092
     26 H81        89.3460   69.4763   18.4734 H         1 SUB1        0.031
     27 H121       87.9736   63.7876   17.7992 H         1 SUB1        0.097
     28 H151       86.4470   67.8974   16.4145 H         1 SUB1        0.183
     29 H152       87.5491   69.0880   17.1566 H         1 SUB1        0.183
     30 H161       90.5976   64.2975   20.8641 H         1 SUB1        0.068
     31 H171       92.7052   64.9941   22.6821 H         1 SUB1        0.210
     32 H181       92.0873   62.9579   19.8464 H         1 SUB1        0.065
     33 H191       93.9900   63.6919   21.8188 H         1 SUB1        0.210
@<TRIPOS>BOND
     1    1    2 1  
     2    2    3 1  
     3    3    4 1  
     4    3   18 1  
     5    4    5 1  
     6    5    6 1  
     7    5   16 1  
     8    6    7 1  
     9    6   14 1  
    10    7    8 2  
    11    8    9 1  
    12    9   10 ar 
    13    9   14 ar 
    14   10   11 ar 
    15   10   15 1  
    16   11   12 ar 
    17   12   13 ar 
    18   13   14 ar 
    19   16   17 1  
    20   16   18 1  
    21   18   19 1  
    22    1   20 1  
    23    2   21 1  
    24    2   22 1  
    25    3   23 1  
    26    5   24 1  
    27    7   25 1  
    28    8   26 1  
    29   12   27 1  
    30   15   28 1  
    31   15   29 1  
    32   16   30 1  
    33   17   31 1  
    34   18   32 1  
    35   19   33 1  
@<TRIPOS>SUBSTRUCTURE
     1 SUB1        1 GROUP

