1pr5_ligand
  -I-interpret- 

 33 35  0  0  0  0  0  0  0  0999 V2000
   93.1020   65.3430   17.0350 O   0  0  0  0  0
   92.9520   64.2410   17.9490 C   0  0  0  0  0
   93.3630   64.6330   19.3910 C   0  0  0  0  0
   93.0510   65.9980   19.6980 O   0  0  0  0  0
   91.8750   66.0560   20.5210 C   0  0  0  0  0
   90.8320   66.7750   19.7220 N   0  0  0  0  0
   90.7280   68.1580   19.5650 C   0  0  0  0  0
   89.6670   68.4780   18.7670 C   0  0  0  0  0
   89.0920   67.2960   18.4130 C   0  0  0  0  0
   87.9540   67.1120   17.5810 C   0  0  0  0  0
   87.6000   65.7900   17.3980 N   0  0  0  0  0
   88.3190   64.7970   17.9910 C   0  0  0  0  0
   89.4130   64.9040   18.7920 N   0  0  0  0  0
   89.7640   66.2270   18.9720 C   0  0  0  0  0
   87.2630   68.1100   17.0060 N   0  0  0  0  0
   91.6160   64.6470   21.0890 C   0  0  0  0  0
   91.8140   64.7190   22.5020 O   0  0  0  0  0
   92.6290   63.7410   20.3970 C   0  0  0  0  0
   93.5020   63.0550   21.3100 O   0  0  0  0  0
   92.5524   66.0645   17.3177 H   0  0  0  0  0
   91.8993   63.9224   17.9640 H   0  0  0  0  0
   93.5914   63.4080   17.6215 H   0  0  0  0  0
   94.4455   64.4756   19.5067 H   0  0  0  0  0
   92.0818   66.6836   21.4003 H   0  0  0  0  0
   91.4019   68.8838   20.0177 H   0  0  0  0  0
   89.3460   69.4763   18.4734 H   0  0  0  0  0
   87.9736   63.7876   17.7992 H   0  0  0  0  0
   86.4470   67.8974   16.4145 H   0  0  0  0  0
   87.5491   69.0880   17.1566 H   0  0  0  0  0
   90.5976   64.2975   20.8641 H   0  0  0  0  0
   92.7052   64.9941   22.6821 H   0  0  0  0  0
   92.0873   62.9579   19.8464 H   0  0  0  0  0
   93.9900   63.6919   21.8188 H   0  0  0  0  0
  1  2  1  0  0  0
  2  3  1  0  0  0
  3  4  1  0  0  0
  3 18  1  0  0  0
  4  5  1  0  0  0
  5  6  1  0  0  0
  5 16  1  0  0  0
  6  7  1  0  0  0
  6 14  1  0  0  0
  7  8  2  0  0  0
  8  9  1  0  0  0
  9 10  4  0  0  0
  9 14  4  0  0  0
 10 11  4  0  0  0
 10 15  1  0  0  0
 11 12  4  0  0  0
 12 13  4  0  0  0
 13 14  4  0  0  0
 16 17  1  0  0  0
 16 18  1  0  0  0
 18 19  1  0  0  0
  1 20  1  0  0  0
  2 21  1  0  0  0
  2 22  1  0  0  0
  3 23  1  0  0  0
  5 24  1  0  0  0
  7 25  1  0  0  0
  8 26  1  0  0  0
 12 27  1  0  0  0
 15 28  1  0  0  0
 15 29  1  0  0  0
 16 30  1  0  0  0
 17 31  1  0  0  0
 18 32  1  0  0  0
 19 33  1  0  0  0
M  END
$$$$
