### 
### Created by X-TOOL on Tue Oct 25 00:11:11 2005
### 

@<TRIPOS>MOLECULE
1xd0_ligand
  110   114     1     0     0
SMALL
GAST_HUCK


@<TRIPOS>ATOM
      1 CR1         1.4990   15.2830   39.9810 C.3       1 SUB1        0.185
      2 CR2         1.7360   14.4730   41.2850 C.3       1 SUB1        0.134
      3 CR3         2.8470   15.1330   42.1100 C.3       1 SUB1        0.114
      4 CR4         4.1450   15.1590   41.2630 C.3       1 SUB1        0.118
      5 CR5         3.8690   16.0010   39.9310 C.3       1 SUB1        0.113
      6 CR6         5.0250   16.0560   39.0830 C.3       1 SUB1        0.073
      7 OR1         1.0110   16.5880   40.2450 O.3       1 SUB1       -0.365
      8 OR2         0.5310   14.4360   42.0170 O.3       1 SUB1       -0.384
      9 OR3         3.0420   14.3630   43.2750 O.3       1 SUB1       -0.386
     10 OR4         5.1770   15.7810   42.0270 O.3       1 SUB1       -0.340
     11 OR5         2.7620   15.3660   39.2060 O.3       1 SUB1       -0.341
     12 OR6         5.4900   14.7640   38.7090 O.3       1 SUB1       -0.392
     13 CV1         6.3460   15.0380   42.1380 C.3       1 SUB1        0.188
     14 CV2         6.7830   14.7670   43.5730 C.3       1 SUB1        0.133
     15 CV3         7.2650   16.0330   44.2760 C.3       1 SUB1        0.104
     16 CV4         8.4410   16.6330   43.4730 C.3       1 SUB1        0.063
     17 CV5         7.8960   16.9650   42.0380 C.3       1 SUB1        0.077
     18 CV6         8.9960   17.5740   41.1820 C.3       1 SUB1       -0.037
     19 OV2         5.7110   14.1610   44.2600 O.3       1 SUB1       -0.384
     20 OV3         7.6830   15.6810   45.5740 O.3       1 SUB1       -0.387
     21 NV4         8.9290   17.8600   44.1410 N.3       1 SUB1       -0.303
     22 OV5         7.4160   15.7130   41.4230 O.3       1 SUB1       -0.344
     23 CQ1        13.6330   18.0350   41.1340 C.3       1 SUB1        0.188
     24 CQ2        13.2100   18.2760   39.6680 C.3       1 SUB1        0.134
     25 CQ3        13.2780   16.9780   38.8070 C.3       1 SUB1        0.114
     26 CQ4        14.7010   16.4170   38.8570 C.3       1 SUB1        0.118
     27 CQ5        14.9600   16.0640   40.3840 C.3       1 SUB1        0.113
     28 CQ6        16.3410   15.4730   40.6470 C.3       1 SUB1        0.073
     29 OQ2        11.8810   18.7640   39.6400 O.3       1 SUB1       -0.384
     30 OQ3        12.9040   17.3330   37.4740 O.3       1 SUB1       -0.386
     31 OQ4        14.7840   15.2540   38.0830 O.3       1 SUB1       -0.340
     32 OQ5        14.8600   17.2630   41.1910 O.3       1 SUB1       -0.340
     33 OQ6        17.3460   16.2700   40.0630 O.3       1 SUB1       -0.392
     34 CW1        15.8970   15.3190   37.1780 C.3       1 SUB1        0.188
     35 CW2        15.4670   15.2840   35.6920 C.3       1 SUB1        0.134
     36 CW3        14.7940   13.9180   35.3950 C.3       1 SUB1        0.114
     37 CW4        15.8400   12.8210   35.6610 C.3       1 SUB1        0.112
     38 CW5        16.2660   12.8880   37.1790 C.3       1 SUB1        0.113
     39 CW6        17.3330   11.8210   37.4960 C.3       1 SUB1        0.073
     40 OW2        14.5770   16.3530   35.4730 O.3       1 SUB1       -0.384
     41 OW3        14.4120   13.8800   34.0400 O.3       1 SUB1       -0.386
     42 OW4        15.2690   11.5510   35.3920 O.3       1 SUB1       -0.387
     43 OW5        16.8230   14.2050   37.4430 O.3       1 SUB1       -0.340
     44 OW6        16.8560   10.5230   37.2650 O.3       1 SUB1       -0.392
     45 CY1        10.1150   17.8030   45.1170 C.3       1 SUB1        0.037
     46 CY2        11.0300   19.0660   44.8730 C.3       1 SUB1        0.099
     47 OY2        10.3090   20.2460   45.0130 O.3       1 SUB1       -0.388
     48 CY3        11.6710   18.9930   43.4160 C.3       1 SUB1        0.109
     49 OY3        12.4870   20.1070   43.1700 O.3       1 SUB1       -0.387
     50 CY4        12.5080   17.6340   43.2070 C.3       1 SUB1        0.095
     51 OY4        12.6100   17.3470   41.8170 O.3       1 SUB1       -0.342
     52 CY5        11.8090   16.4140   43.8090 C.3       1 SUB1        0.013
     53 CY6        11.1210   16.6060   44.9550 C.3       1 SUB1       -0.028
     54 CY7        12.7550   15.1950   43.9820 C.3       1 SUB1        0.049
     55 OY7        13.7880   15.4940   44.9500 O.3       1 SUB1       -0.395
     56 H11         0.7492   14.7511   39.3770 H         1 SUB1        0.094
     57 H21         2.0385   13.4467   41.0297 H         1 SUB1        0.067
     58 H31         2.5596   16.1591   42.3828 H         1 SUB1        0.065
     59 H41         4.4438   14.1336   40.9999 H         1 SUB1        0.065
     60 H51         3.5850   17.0268   40.2087 H         1 SUB1        0.065
     61 H61         5.8307   16.5791   39.6188 H         1 SUB1        0.058
     62 H62         4.7673   16.6154   38.1716 H         1 SUB1        0.058
     63 H71         0.2029   16.5284   40.7410 H         1 SUB1        0.213
     64 H81         0.6615   13.9366   42.8145 H         1 SUB1        0.210
     65 H91         3.7433   14.7432   43.7908 H         1 SUB1        0.210
     66 H121        4.8036   14.3055   38.2387 H         1 SUB1        0.209
     67 H131        6.1664   14.0647   41.6580 H         1 SUB1        0.094
     68 H141        7.6239   14.0583   43.5497 H         1 SUB1        0.067
     69 H151        6.4471   16.7662   44.3355 H         1 SUB1        0.064
     70 H161        9.2619   15.9042   43.4031 H         1 SUB1        0.051
     71 H171        7.0632   17.6792   42.1179 H         1 SUB1        0.061
     72 H181        8.5990   17.8006   40.1815 H         1 SUB1        0.025
     73 H182        9.8287   16.8608   41.0931 H         1 SUB1        0.025
     74 H183        9.3557   18.5011   41.6522 H         1 SUB1        0.025
     75 H191        4.9836   14.7700   44.3098 H         1 SUB1        0.210
     76 H201        6.9492   15.3144   46.0533 H         1 SUB1        0.210
     77 H211        8.0936   18.2634   44.6939 H         1 SUB1        0.123
     78 H231       13.8002   19.0071   41.6210 H         1 SUB1        0.094
     79 H241       13.8832   19.0266   39.2283 H         1 SUB1        0.067
     80 H251       12.5774   16.2265   39.1999 H         1 SUB1        0.065
     81 H261       15.4277   17.1603   38.4973 H         1 SUB1        0.065
     82 H271       14.1966   15.3395   40.7039 H         1 SUB1        0.065
     83 H281       16.3881   14.4614   40.2176 H         1 SUB1        0.058
     84 H282       16.5093   15.4187   41.7327 H         1 SUB1        0.058
     85 H291       11.2957   18.1063   39.9969 H         1 SUB1        0.210
     86 H301       12.9447   16.5629   36.9191 H         1 SUB1        0.210
     87 H331       17.3107   17.1440   40.4336 H         1 SUB1        0.209
     88 H341       16.4256   16.2667   37.3580 H         1 SUB1        0.094
     89 H351       16.3478   15.4026   35.0439 H         1 SUB1        0.067
     90 H361       13.9145   13.7739   36.0398 H         1 SUB1        0.065
     91 H371       16.7185   12.9777   35.0179 H         1 SUB1        0.065
     92 H381       15.3839   12.7217   37.8147 H         1 SUB1        0.065
     93 H391       17.6232   11.9107   38.5532 H         1 SUB1        0.058
     94 H392       18.2120   11.9960   36.8583 H         1 SUB1        0.058
     95 H401       13.8228   16.2575   36.0427 H         1 SUB1        0.210
     96 H411       14.0385   13.0294   33.8412 H         1 SUB1        0.210
     97 H421       15.9085   10.8725   35.5743 H         1 SUB1        0.210
     98 H441       16.6081   10.4357   36.3521 H         1 SUB1        0.209
     99 H451        9.7137   17.8005   46.1412 H         1 SUB1        0.049
    100 H461       11.8396   19.0607   45.6177 H         1 SUB1        0.064
    101 H471       10.8838   20.9869   44.8610 H         1 SUB1        0.210
    102 H481       10.8493   19.0025   42.6848 H         1 SUB1        0.065
    103 H491       11.9673   20.8995   43.2356 H         1 SUB1        0.210
    104 H501       13.5064   17.7539   43.6528 H         1 SUB1        0.063
    105 H521       11.0591   16.1206   43.0596 H         1 SUB1        0.035
    106 H531       10.5408   15.6873   45.1265 H         1 SUB1        0.029
    107 H532       11.8707   16.7204   45.7518 H         1 SUB1        0.029
    108 H541       13.2220   14.9580   43.0147 H         1 SUB1        0.056
    109 H542       12.1717   14.3295   44.3295 H         1 SUB1        0.056
    110 H551       14.3586   14.7404   45.0456 H         1 SUB1        0.209
@<TRIPOS>BOND
     1    2    1 1  
     2    1    7 1  
     3   11    1 1  
     4    3    2 1  
     5    2    8 1  
     6    4    3 1  
     7    3    9 1  
     8    4    5 1  
     9   10    4 1  
    10    5    6 1  
    11    5   11 1  
    12    6   12 1  
    13   13   10 1  
    14   14   13 1  
    15   22   13 1  
    16   15   14 1  
    17   14   19 1  
    18   16   15 1  
    19   15   20 1  
    20   16   17 1  
    21   21   16 1  
    22   17   18 1  
    23   17   22 1  
    24   45   21 1  
    25   23   24 1  
    26   23   32 1  
    27   51   23 1  
    28   24   25 1  
    29   24   29 1  
    30   25   26 1  
    31   25   30 1  
    32   27   26 1  
    33   26   31 1  
    34   27   28 1  
    35   32   27 1  
    36   28   33 1  
    37   31   34 1  
    38   34   35 1  
    39   34   43 1  
    40   35   36 1  
    41   35   40 1  
    42   36   37 1  
    43   36   41 1  
    44   38   37 1  
    45   37   42 1  
    46   38   39 1  
    47   43   38 1  
    48   39   44 1  
    49   46   45 1  
    50   45   53 1  
    51   46   47 1  
    52   48   46 1  
    53   48   49 1  
    54   50   48 1  
    55   50   51 1  
    56   50   52 1  
    57   52   53 1  
    58   52   54 1  
    59   54   55 1  
    60    1   56 1  
    61    2   57 1  
    62    3   58 1  
    63    4   59 1  
    64    5   60 1  
    65    6   61 1  
    66    6   62 1  
    67    7   63 1  
    68    8   64 1  
    69    9   65 1  
    70   12   66 1  
    71   13   67 1  
    72   14   68 1  
    73   15   69 1  
    74   16   70 1  
    75   17   71 1  
    76   18   72 1  
    77   18   73 1  
    78   18   74 1  
    79   19   75 1  
    80   20   76 1  
    81   21   77 1  
    82   23   78 1  
    83   24   79 1  
    84   25   80 1  
    85   26   81 1  
    86   27   82 1  
    87   28   83 1  
    88   28   84 1  
    89   29   85 1  
    90   30   86 1  
    91   33   87 1  
    92   34   88 1  
    93   35   89 1  
    94   36   90 1  
    95   37   91 1  
    96   38   92 1  
    97   39   93 1  
    98   39   94 1  
    99   40   95 1  
   100   41   96 1  
   101   42   97 1  
   102   44   98 1  
   103   45   99 1  
   104   46  100 1  
   105   47  101 1  
   106   48  102 1  
   107   49  103 1  
   108   50  104 1  
   109   52  105 1  
   110   53  106 1  
   111   53  107 1  
   112   54  108 1  
   113   54  109 1  
   114   55  110 1  
@<TRIPOS>SUBSTRUCTURE
     1 SUB1        1 GROUP

