### 
### Created by X-TOOL on Tue Oct 25 02:14:55 2005
### 

@<TRIPOS>MOLECULE
1qbq_ligand
   45    44     1     0     0
SMALL
GAST_HUCK


@<TRIPOS>ATOM
      1 H191      197.6981  125.1665   30.3772 H         1 SUB1        0.074
      2 H201      198.2839  127.4293   30.2277 H         1 SUB1        0.212
      3 H211      195.0437  126.1364   31.6601 H         1 SUB1        0.027
      4 H231      195.2899  123.4403   28.4039 H         1 SUB1        0.038
      5 H232      196.7172  123.4962   29.4930 H         1 SUB1        0.038
      6 H233      196.4031  124.8492   28.3540 H         1 SUB1        0.038
      7 H241      193.3913  123.6112   29.5305 H         1 SUB1        0.043
      8 H242      193.0709  125.3707   29.6980 H         1 SUB1        0.043
      9 H251      192.8735  125.2543   32.0377 H         1 SUB1        0.036
     10 H252      193.9393  123.8140   32.1646 H         1 SUB1        0.036
     11 H261      191.6846  122.7769   30.7276 H         1 SUB1        0.024
     12 H281      190.6123  123.9193   34.6703 H         1 SUB1        0.038
     13 H282      191.3877  125.1842   33.6577 H         1 SUB1        0.038
     14 H283      192.3699  123.8293   34.3107 H         1 SUB1        0.038
     15 P         197.7660  126.0930   32.6320 P.3       1 SUB1        0.094
     16 O1P       198.9400  126.9520   32.6260 O.co2     1 SUB1       -0.540
     17 O2P       198.0850  124.6460   33.1350 O.co2     1 SUB1       -0.540
     18 O3P       196.6260  126.6790   33.4890 O.co2     1 SUB1       -0.540
     19 C1        197.1530  125.9630   30.9050 C.3       1 SUB1        0.108
     20 O1        197.3570  127.2210   30.2330 O.3       1 SUB1       -0.380
     21 C2        195.6740  125.6470   30.9190 C.2       1 SUB1       -0.075
     22 C3        195.1050  124.7900   30.0580 C.2       1 SUB1       -0.080
     23 C4        195.9350  124.0970   29.0060 C.3       1 SUB1       -0.040
     24 C5        193.6120  124.5120   30.1220 C.3       1 SUB1       -0.025
     25 C6        193.1310  124.2850   31.5860 C.3       1 SUB1       -0.039
     26 C7        191.9070  123.3810   31.6060 C.2       1 SUB1       -0.107
     27 C8        191.0900  123.3030   32.6730 C.2       1 SUB1       -0.083
     28 C9        191.3850  124.1140   33.9120 C.3       1 SUB1       -0.040
     29 C10       189.8710  122.3880   32.6710 C.3       1 SUB1       -0.025
     30 C11       188.7720  122.9300   31.7860 C.3       1 SUB1       -0.039
     31 C12       187.5110  122.0950   31.9720 C.2       1 SUB1       -0.107
     32 C13       186.3380  122.3820   31.3550 C.2       1 SUB1       -0.087
     33 C14       186.2070  123.5610   30.4170 C.3       1 SUB1       -0.041
     34 C15       185.1120  121.5150   31.5740 C.3       1 SUB1       -0.041
     35 H291      189.4901  122.2980   33.6990 H         1 SUB1        0.043
     36 H292      190.1697  121.3956   32.3024 H         1 SUB1        0.043
     37 H301      189.0912  122.8825   30.7344 H         1 SUB1        0.036
     38 H302      188.5633  123.9749   32.0591 H         1 SUB1        0.036
     39 H311      187.5537  121.2285   32.6302 H         1 SUB1        0.024
     40 H331      185.1784  123.6092   30.0301 H         1 SUB1        0.038
     41 H332      186.9089  123.4422   29.5784 H         1 SUB1        0.038
     42 H333      186.4383  124.4892   30.9601 H         1 SUB1        0.038
     43 H341      185.3573  120.7035   32.2749 H         1 SUB1        0.038
     44 H342      184.7904  121.0854   30.6138 H         1 SUB1        0.038
     45 H343      184.2996  122.1275   31.9922 H         1 SUB1        0.038
@<TRIPOS>BOND
     1   19    1 1  
     2   20    2 1  
     3   21    3 1  
     4   23    4 1  
     5   23    5 1  
     6   23    6 1  
     7   24    7 1  
     8   24    8 1  
     9   19   15 1  
    10   15   18 2  
    11   15   17 2  
    12   15   16 2  
    13   21   19 1  
    14   19   20 1  
    15   22   21 2  
    16   22   24 1  
    17   22   23 1  
    18   24   25 1  
    19   25   26 1  
    20   26   27 2  
    21   27   29 1  
    22   27   28 1  
    23   29   30 1  
    24   30   31 1  
    25   31   32 2  
    26   32   34 1  
    27   32   33 1  
    28   25    9 1  
    29   25   10 1  
    30   26   11 1  
    31   28   12 1  
    32   28   13 1  
    33   28   14 1  
    34   29   35 1  
    35   29   36 1  
    36   30   37 1  
    37   30   38 1  
    38   31   39 1  
    39   33   40 1  
    40   33   41 1  
    41   33   42 1  
    42   34   43 1  
    43   34   44 1  
    44   34   45 1  
@<TRIPOS>SUBSTRUCTURE
     1 SUB1        1 GROUP

