1qbq_ligand
  -I-interpret- 

 45 44  0  0  0  0  0  0  0  0999 V2000
  197.6981  125.1665   30.3772 H   0  0  0  0  0
  198.2839  127.4293   30.2277 H   0  0  0  0  0
  195.0437  126.1364   31.6601 H   0  0  0  0  0
  195.2899  123.4403   28.4039 H   0  0  0  0  0
  196.7172  123.4962   29.4930 H   0  0  0  0  0
  196.4031  124.8492   28.3540 H   0  0  0  0  0
  193.3913  123.6112   29.5305 H   0  0  0  0  0
  193.0709  125.3707   29.6980 H   0  0  0  0  0
  192.8735  125.2543   32.0377 H   0  0  0  0  0
  193.9393  123.8140   32.1646 H   0  0  0  0  0
  191.6846  122.7769   30.7276 H   0  0  0  0  0
  190.6123  123.9193   34.6703 H   0  0  0  0  0
  191.3877  125.1842   33.6577 H   0  0  0  0  0
  192.3699  123.8293   34.3107 H   0  0  0  0  0
  197.7660  126.0930   32.6320 P   0  0  0  0  0
  198.9400  126.9520   32.6260 O   0  0  0  0  0
  198.0850  124.6460   33.1350 O   0  5  0  0  0
  196.6260  126.6790   33.4890 O   0  5  0  0  0
  197.1530  125.9630   30.9050 C   0  0  0  0  0
  197.3570  127.2210   30.2330 O   0  0  0  0  0
  195.6740  125.6470   30.9190 C   0  0  0  0  0
  195.1050  124.7900   30.0580 C   0  0  0  0  0
  195.9350  124.0970   29.0060 C   0  0  0  0  0
  193.6120  124.5120   30.1220 C   0  0  0  0  0
  193.1310  124.2850   31.5860 C   0  0  0  0  0
  191.9070  123.3810   31.6060 C   0  0  0  0  0
  191.0900  123.3030   32.6730 C   0  0  0  0  0
  191.3850  124.1140   33.9120 C   0  0  0  0  0
  189.8710  122.3880   32.6710 C   0  0  0  0  0
  188.7720  122.9300   31.7860 C   0  0  0  0  0
  187.5110  122.0950   31.9720 C   0  0  0  0  0
  186.3380  122.3820   31.3550 C   0  0  0  0  0
  186.2070  123.5610   30.4170 C   0  0  0  0  0
  185.1120  121.5150   31.5740 C   0  0  0  0  0
  189.4901  122.2980   33.6990 H   0  0  0  0  0
  190.1697  121.3956   32.3024 H   0  0  0  0  0
  189.0912  122.8825   30.7344 H   0  0  0  0  0
  188.5633  123.9749   32.0591 H   0  0  0  0  0
  187.5537  121.2285   32.6302 H   0  0  0  0  0
  185.1784  123.6092   30.0301 H   0  0  0  0  0
  186.9089  123.4422   29.5784 H   0  0  0  0  0
  186.4383  124.4892   30.9601 H   0  0  0  0  0
  185.3573  120.7035   32.2749 H   0  0  0  0  0
  184.7904  121.0854   30.6138 H   0  0  0  0  0
  184.2996  122.1275   31.9922 H   0  0  0  0  0
 19  1  1  0  0  0
 20  2  1  0  0  0
 21  3  1  0  0  0
 23  4  1  0  0  0
 23  5  1  0  0  0
 23  6  1  0  0  0
 24  7  1  0  0  0
 24  8  1  0  0  0
 19 15  1  0  0  0
 15 18  1  0  0  0
 15 17  1  0  0  0
 15 16  2  0  0  0
 21 19  1  0  0  0
 19 20  1  0  0  0
 22 21  2  0  0  0
 22 24  1  0  0  0
 22 23  1  0  0  0
 24 25  1  0  0  0
 25 26  1  0  0  0
 26 27  2  0  0  0
 27 29  1  0  0  0
 27 28  1  0  0  0
 29 30  1  0  0  0
 30 31  1  0  0  0
 31 32  2  0  0  0
 32 34  1  0  0  0
 32 33  1  0  0  0
 25  9  1  0  0  0
 25 10  1  0  0  0
 26 11  1  0  0  0
 28 12  1  0  0  0
 28 13  1  0  0  0
 28 14  1  0  0  0
 29 35  1  0  0  0
 29 36  1  0  0  0
 30 37  1  0  0  0
 30 38  1  0  0  0
 31 39  1  0  0  0
 33 40  1  0  0  0
 33 41  1  0  0  0
 33 42  1  0  0  0
 34 43  1  0  0  0
 34 44  1  0  0  0
 34 45  1  0  0  0
M  END
$$$$
