### 
### Created by X-TOOL on Mon Oct 24 23:38:34 2005
### 

@<TRIPOS>MOLECULE
9abp_ligand
   24    24     1     0     0
SMALL
GAST_HUCK


@<TRIPOS>ATOM
      1 C1         14.2590   56.3430   54.8690 C.3       1 SUB1        0.185
      2 C2         12.8610   56.8100   54.5580 C.3       1 SUB1        0.134
      3 C3         12.4060   56.0910   53.2890 C.3       1 SUB1        0.114
      4 C4         13.3550   56.3430   52.1290 C.3       1 SUB1        0.112
      5 C5         14.7470   55.9050   52.5650 C.3       1 SUB1        0.113
      6 C6         15.7620   56.1560   51.4520 C.3       1 SUB1        0.073
      7 O1         14.8800   57.0110   55.9670 O.3       1 SUB1       -0.365
      8 O2         11.9070   56.5150   55.5860 O.3       1 SUB1       -0.384
      9 O3         11.0420   56.3860   52.9700 O.3       1 SUB1       -0.386
     10 O4         13.2490   57.6640   51.5920 O.3       1 SUB1       -0.387
     11 O5         15.1290   56.5940   53.7560 O.3       1 SUB1       -0.341
     12 O6         17.0260   55.5600   51.7710 O.3       1 SUB1       -0.392
     13 H11        14.2184   55.2641   55.0795 H         1 SUB1        0.094
     14 H21        12.8788   57.8972   54.3914 H         1 SUB1        0.067
     15 H31        12.4511   55.0127   53.5018 H         1 SUB1        0.065
     16 H41        13.0558   55.6690   51.3128 H         1 SUB1        0.065
     17 H51        14.7233   54.8260   52.7777 H         1 SUB1        0.065
     18 H61        15.8966   57.2403   51.3246 H         1 SUB1        0.058
     19 H62        15.3845   55.7208   50.5149 H         1 SUB1        0.058
     20 H71        15.7474   56.6495   56.1065 H         1 SUB1        0.213
     21 H81        11.0493   56.8236   55.3185 H         1 SUB1        0.210
     22 H91        10.4959   56.2113   53.7274 H         1 SUB1        0.210
     23 H101       12.3458   57.8359   51.3530 H         1 SUB1        0.210
     24 H121       17.6409   55.7281   51.0666 H         1 SUB1        0.209
@<TRIPOS>BOND
     1    1    2 1  
     2    1    7 1  
     3    1   11 1  
     4    2    3 1  
     5    2    8 1  
     6    3    4 1  
     7    3    9 1  
     8    4    5 1  
     9    4   10 1  
    10    5    6 1  
    11    5   11 1  
    12    6   12 1  
    13    1   13 1  
    14    2   14 1  
    15    3   15 1  
    16    4   16 1  
    17    5   17 1  
    18    6   18 1  
    19    6   19 1  
    20    7   20 1  
    21    8   21 1  
    22    9   22 1  
    23   10   23 1  
    24   12   24 1  
@<TRIPOS>SUBSTRUCTURE
     1 SUB1        1 GROUP

