9abp_ligand
  -I-interpret- 

 24 24  0  0  0  0  0  0  0  0999 V2000
   14.2590   56.3430   54.8690 C   0  0  0  0  0
   12.8610   56.8100   54.5580 C   0  0  0  0  0
   12.4060   56.0910   53.2890 C   0  0  0  0  0
   13.3550   56.3430   52.1290 C   0  0  0  0  0
   14.7470   55.9050   52.5650 C   0  0  0  0  0
   15.7620   56.1560   51.4520 C   0  0  0  0  0
   14.8800   57.0110   55.9670 O   0  0  0  0  0
   11.9070   56.5150   55.5860 O   0  0  0  0  0
   11.0420   56.3860   52.9700 O   0  0  0  0  0
   13.2490   57.6640   51.5920 O   0  0  0  0  0
   15.1290   56.5940   53.7560 O   0  0  0  0  0
   17.0260   55.5600   51.7710 O   0  0  0  0  0
   14.2184   55.2641   55.0795 H   0  0  0  0  0
   12.8788   57.8972   54.3914 H   0  0  0  0  0
   12.4511   55.0127   53.5018 H   0  0  0  0  0
   13.0558   55.6690   51.3128 H   0  0  0  0  0
   14.7233   54.8260   52.7777 H   0  0  0  0  0
   15.8966   57.2403   51.3246 H   0  0  0  0  0
   15.3845   55.7208   50.5149 H   0  0  0  0  0
   15.7474   56.6495   56.1065 H   0  0  0  0  0
   11.0493   56.8236   55.3185 H   0  0  0  0  0
   10.4959   56.2113   53.7274 H   0  0  0  0  0
   12.3458   57.8359   51.3530 H   0  0  0  0  0
   17.6409   55.7281   51.0666 H   0  0  0  0  0
  1  2  1  0  0  0
  1  7  1  0  0  0
  1 11  1  0  0  0
  2  3  1  0  0  0
  2  8  1  0  0  0
  3  4  1  0  0  0
  3  9  1  0  0  0
  4  5  1  0  0  0
  4 10  1  0  0  0
  5  6  1  0  0  0
  5 11  1  0  0  0
  6 12  1  0  0  0
  1 13  1  0  0  0
  2 14  1  0  0  0
  3 15  1  0  0  0
  4 16  1  0  0  0
  5 17  1  0  0  0
  6 18  1  0  0  0
  6 19  1  0  0  0
  7 20  1  0  0  0
  8 21  1  0  0  0
  9 22  1  0  0  0
 10 23  1  0  0  0
 12 24  1  0  0  0
M  END
$$$$
