2ez7_ligand
  -I-interpret- 

 20 20  0  0  0  0  0  0  0  0999 V2000
   -0.1790    2.2930   11.0110 N   0  3  0  0  0
    0.2590    3.5970   11.5220 C   0  0  0  0  0
    1.6920    3.8840   11.1000 C   0  0  0  0  0
    2.0620    3.5830    9.9860 O   0  0  0  0  0
   -0.6690    4.7030   11.0050 C   0  0  0  0  0
   -2.0930    4.4050   11.3910 C   0  0  0  0  0
   -2.8780    3.4860   10.8050 N   0  0  0  0  0
   -2.8030    5.0020   12.3690 C   0  0  0  0  0
   -4.0420    3.4900   11.3810 C   0  0  0  0  0
   -4.0420    4.4210   12.3650 N   0  0  0  0  0
    2.5520    4.4690   11.9460 O   0  5  0  0  0
    0.4444    1.5653   11.3606 H   0  0  0  0  0
   -1.1309    2.1076   11.3271 H   0  0  0  0  0
   -0.1539    2.3029    9.9914 H   0  0  0  0  0
    0.2155    3.5730   12.6109 H   0  0  0  0  0
   -0.5956    4.7530    9.9186 H   0  0  0  0  0
   -0.3708    5.6549   11.4444 H   0  0  0  0  0
   -2.4574    5.7936   13.0338 H   0  0  0  0  0
   -4.8824    2.8485   11.1158 H   0  0  0  0  0
   -4.8191    4.6465   12.9860 H   0  0  0  0  0
  1  2  1  0  0  0
  2  3  1  0  0  0
  2  5  1  0  0  0
  3  4  2  0  0  0
  3 11  1  0  0  0
  5  6  1  0  0  0
  6  7  1  0  0  0
  6  8  2  0  0  0
  7  9  2  0  0  0
  8 10  1  0  0  0
  9 10  1  0  0  0
  1 12  1  0  0  0
  1 13  1  0  0  0
  1 14  1  0  0  0
  2 15  1  0  0  0
  5 16  1  0  0  0
  5 17  1  0  0  0
  8 18  1  0  0  0
  9 19  1  0  0  0
 10 20  1  0  0  0
M  END
$$$$
