### 
### Created by X-TOOL on Sun Jun  3 11:22:59 2007
### 

@<TRIPOS>MOLECULE
2ez7_ligand
   20    20     1     0     0
SMALL
GAST_HUCK


@<TRIPOS>ATOM
      1 N          -0.1790    2.2930   11.0110 N.4       1 SUB1        0.237
      2 CA          0.2590    3.5970   11.5220 C.3       1 SUB1        0.094
      3 C           1.6920    3.8840   11.1000 C.2       1 SUB1        0.394
      4 O           2.0620    3.5830    9.9860 O.2       1 SUB1       -0.256
      5 CB         -0.6690    4.7030   11.0050 C.3       1 SUB1        0.034
      6 CG         -2.0930    4.4050   11.3910 C.2       1 SUB1        0.000
      7 ND1        -2.8780    3.4860   10.8050 N.2       1 SUB1       -0.325
      8 CD2        -2.8030    5.0020   12.3690 C.2       1 SUB1        0.029
      9 CE1        -4.0420    3.4900   11.3810 C.2       1 SUB1        0.091
     10 NE2        -4.0420    4.4210   12.3650 N.pl3     1 SUB1       -0.275
     11 OXT         2.5520    4.4690   11.9460 O.2       1 SUB1       -0.256
     12 H           0.4444    1.5653   11.3606 H         1 SUB1        0.201
     13 H          -1.1309    2.1076   11.3271 H         1 SUB1        0.201
     14 H          -0.1539    2.3029    9.9914 H         1 SUB1        0.201
     15 H           0.2155    3.5730   12.6109 H         1 SUB1        0.109
     16 H          -0.5956    4.7530    9.9186 H         1 SUB1        0.045
     17 H          -0.3708    5.6549   11.4444 H         1 SUB1        0.045
     18 H          -2.4574    5.7936   13.0338 H         1 SUB1        0.073
     19 H          -4.8824    2.8485   11.1158 H         1 SUB1        0.120
     20 H          -4.8191    4.6465   12.9860 H         1 SUB1        0.236
@<TRIPOS>BOND
     1    1    2 1  
     2    2    3 1  
     3    2    5 1  
     4    3    4 2  
     5    3   11 2  
     6    5    6 1  
     7    6    7 1  
     8    6    8 2  
     9    7    9 2  
    10    8   10 1  
    11    9   10 1  
    12    1   12 1  
    13    1   13 1  
    14    1   14 1  
    15    2   15 1  
    16    5   16 1  
    17    5   17 1  
    18    8   18 1  
    19    9   19 1  
    20   10   20 1  
@<TRIPOS>SUBSTRUCTURE
     1 SUB1        1 GROUP

