### 
### Created by X-TOOL on Mon Oct 24 23:17:38 2005
### 

@<TRIPOS>MOLECULE
1v2j_ligand
   18    18     1     0     0
SMALL
GAST_HUCK


@<TRIPOS>ATOM
      1 C1         -3.1810    9.0690   19.6770 C.ar      1 SUB1        0.186
      2 C2         -1.7990    8.8300   19.2450 C.ar      1 SUB1       -0.007
      3 C3         -1.1970    7.5130   19.3840 C.ar      1 SUB1       -0.057
      4 C4         -1.9660    6.4190   19.9580 C.ar      1 SUB1       -0.062
      5 C5         -3.3290    6.6410   20.3880 C.ar      1 SUB1       -0.057
      6 C6         -3.9370    7.9570   20.2510 C.ar      1 SUB1       -0.007
      7 C          -3.8250   10.4620   19.5310 C.cat     1 SUB1        0.316
      8 N1         -5.1290   10.5930   19.6880 N.pl3     1 SUB1       -0.200
      9 N2         -3.0690   11.5130   19.2490 N.pl3     1 SUB1       -0.200
     10 H21        -1.2215    9.6422   18.8185 H         1 SUB1        0.066
     11 H31        -0.1760    7.3466   19.0601 H         1 SUB1        0.062
     12 H41        -1.5174    5.4378   20.0633 H         1 SUB1        0.062
     13 H51        -3.9003    5.8242   20.8141 H         1 SUB1        0.062
     14 H61        -4.9588    8.1135   20.5774 H         1 SUB1        0.066
     15 H81        -5.5687   11.5195   19.5925 H         1 SUB1        0.192
     16 H82        -5.7069    9.7687   19.9061 H         1 SUB1        0.192
     17 H91        -2.0525   11.3988   19.1287 H         1 SUB1        0.192
     18 H92        -3.4979   12.4442   19.1501 H         1 SUB1        0.192
@<TRIPOS>BOND
     1    1    2 ar 
     2    1    6 ar 
     3    1    7 1  
     4    2    3 ar 
     5    3    4 ar 
     6    4    5 ar 
     7    5    6 ar 
     8    7    8 1  
     9    7    9 1  
    10    2   10 1  
    11    3   11 1  
    12    4   12 1  
    13    5   13 1  
    14    6   14 1  
    15    8   15 1  
    16    8   16 1  
    17    9   17 1  
    18    9   18 1  
@<TRIPOS>SUBSTRUCTURE
     1 SUB1        1 GROUP

