2avs_ligand
  -I-interpret- 

 92 96  0  0  0  0  0  0  0  0999 V2000
   22.4450   34.8440   16.1780 N   0  0  0  0  0
   21.0910   34.7250   15.5750 C   0  0  0  0  0
   20.2950   33.5670   16.1210 C   0  0  0  0  0
   18.9550   33.5470   15.4590 C   0  0  0  0  0
   18.8220   33.1750   14.2840 O   0  0  0  0  0
   17.9760   33.9960   16.2110 N   0  0  0  0  0
   16.5460   34.0910   15.7640 C   0  0  0  0  0
   15.8040   34.6790   16.9650 C   0  0  0  0  0
   16.0250   32.7930   15.4150 C   0  0  0  0  0
   16.4750   35.0410   14.6250 C   0  0  0  0  0
   21.0870   32.3120   15.8580 N   0  0  0  0  0
   22.4500   32.3980   16.4160 C   0  0  0  0  0
   23.1680   33.6540   15.8720 C   0  0  0  0  0
   20.4550   31.1210   16.4030 C   0  0  0  0  0
   20.6130   29.9120   15.5060 C   0  0  0  0  0
   20.6030   28.7120   16.2840 O   0  0  0  0  0
   19.4780   29.8040   14.4820 C   0  0  0  0  0
   19.5580   28.6430   13.5010 C   0  0  0  0  0
   18.2620   28.5260   12.6700 C   0  0  0  0  0
   18.2940   27.5220   11.5900 C   0  0  0  0  0
   18.4210   26.1680   11.8720 C   0  0  0  0  0
   18.4530   25.2370   10.8450 C   0  0  0  0  0
   18.3730   25.6420    9.5080 C   0  0  0  0  0
   18.2450   27.0060    9.2440 C   0  0  0  0  0
   18.1830   27.9270   10.2500 C   0  0  0  0  0
   20.7160   28.7700   12.5140 C   0  0  0  0  0
   20.9860   29.8580   11.9420 O   0  0  0  0  0
   21.3860   27.6660   12.2640 N   0  0  0  0  0
   22.2740   27.5340   11.1350 C   0  0  0  0  0
   22.1980   26.2110   10.4130 C   0  0  0  0  0
   22.1160   25.1530   11.3660 O   0  0  0  0  0
   23.5390   26.1090    9.6840 C   0  0  0  0  0
   24.5400   26.8250   10.5540 C   0  0  0  0  0
   25.9030   26.8170   10.6690 C   0  0  0  0  0
   26.5310   27.5940   11.6000 C   0  0  0  0  0
   25.8220   28.4500   12.4520 C   0  0  0  0  0
   24.4400   28.4810   12.3620 C   0  0  0  0  0
   23.7590   27.7090   11.4620 C   0  0  0  0  0
   23.1370   36.0060   15.5760 C   0  0  0  0  0
   22.5420   37.3420   15.9960 C   0  0  0  0  0
   22.4430   37.6860   17.3480 C   0  0  0  0  0
   21.9150   38.8730   17.7980 N   0  0  0  0  0
   21.5130   39.7450   16.8190 C   0  0  0  0  0
   21.6110   39.4840   15.4540 C   0  0  0  0  0
   22.1070   38.2470   15.0610 C   0  0  0  0  0
   21.2200   34.5609   14.5052 H   0  0  0  0  0
   20.5450   35.6392   15.8080 H   0  0  0  0  0
   20.1230   33.6524   17.1940 H   0  0  0  0  0
   18.2016   34.2992   17.1584 H   0  0  0  0  0
   14.7463   34.7815   16.7224 H   0  0  0  0  0
   15.9188   34.0152   17.8219 H   0  0  0  0  0
   16.2199   35.6579   17.2037 H   0  0  0  0  0
   16.1410   32.1166   16.2619 H   0  0  0  0  0
   14.9685   32.8829   15.1623 H   0  0  0  0  0
   16.5729   32.4014   14.5579 H   0  0  0  0  0
   15.4315   35.2116   14.3603 H   0  0  0  0  0
   16.9375   35.9854   14.9119 H   0  0  0  0  0
   17.0041   34.6209   13.7696 H   0  0  0  0  0
   23.0122   31.5105   16.1256 H   0  0  0  0  0
   22.3885   32.4633   17.5023 H   0  0  0  0  0
   24.1512   33.7183   16.3382 H   0  0  0  0  0
   23.2439   33.5656   14.7882 H   0  0  0  0  0
   19.3891   31.3249   16.5045 H   0  0  0  0  0
   20.9335   30.8950   17.3559 H   0  0  0  0  0
   21.5620   30.0354   14.9843 H   0  0  0  0  0
   20.7039   27.9544   15.7030 H   0  0  0  0  0
   19.5263   30.7117   13.8805 H   0  0  0  0  0
   18.5652   29.6509   15.0577 H   0  0  0  0  0
   19.7112   27.7594   14.1206 H   0  0  0  0  0
   18.1094   29.4937   12.1920 H   0  0  0  0  0
   17.4760   28.2177   13.3594 H   0  0  0  0  0
   18.4960   25.8351   12.9072 H   0  0  0  0  0
   18.5415   24.1768   11.0820 H   0  0  0  0  0
   18.4096   24.9141    8.6975 H   0  0  0  0  0
   18.1932   27.3447    8.2092 H   0  0  0  0  0
   18.0467   28.9819   10.0118 H   0  0  0  0  0
   21.2731   26.8715   12.8936 H   0  0  0  0  0
   21.9057   28.3461   10.5081 H   0  0  0  0  0
   21.3363   26.1434    9.7489 H   0  0  0  0  0
   22.0677   24.3121   10.9055 H   0  0  0  0  0
   23.4846   26.5585    8.6925 H   0  0  0  0  0
   23.8249   25.0690    9.5269 H   0  0  0  0  0
   26.4951   26.1826   10.0094 H   0  0  0  0  0
   27.6168   27.5465   11.6825 H   0  0  0  0  0
   26.3468   29.0789   13.1711 H   0  0  0  0  0
   23.8801   29.1388   13.0268 H   0  0  0  0  0
   23.0368   35.9256   14.4936 H   0  0  0  0  0
   24.1730   35.9850   15.9143 H   0  0  0  0  0
   22.8053   36.9719   18.0875 H   0  0  0  0  0
   21.0908   40.7013   17.1278 H   0  0  0  0  0
   21.3078   40.2275   14.7168 H   0  0  0  0  0
   22.1509   37.9936   14.0018 H   0  0  0  0  0
  1  2  1  0  0  0
  1 13  1  0  0  0
  1 39  1  0  0  0
  2  3  1  0  0  0
  3  4  1  0  0  0
  3 11  1  0  0  0
  4  5  2  0  0  0
  4  6  1  0  0  0
  6  7  1  0  0  0
  7  8  1  0  0  0
  7  9  1  0  0  0
  7 10  1  0  0  0
 11 12  1  0  0  0
 11 14  1  0  0  0
 12 13  1  0  0  0
 14 15  1  0  0  0
 15 16  1  0  0  0
 15 17  1  0  0  0
 17 18  1  0  0  0
 18 19  1  0  0  0
 18 26  1  0  0  0
 19 20  1  0  0  0
 20 21  4  0  0  0
 20 25  4  0  0  0
 21 22  4  0  0  0
 22 23  4  0  0  0
 23 24  4  0  0  0
 24 25  4  0  0  0
 26 27  2  0  0  0
 26 28  1  0  0  0
 28 29  1  0  0  0
 29 30  1  0  0  0
 29 38  1  0  0  0
 30 31  1  0  0  0
 30 32  1  0  0  0
 32 33  1  0  0  0
 33 34  4  0  0  0
 33 38  4  0  0  0
 34 35  4  0  0  0
 35 36  4  0  0  0
 36 37  4  0  0  0
 37 38  4  0  0  0
 39 40  1  0  0  0
 40 41  4  0  0  0
 40 45  4  0  0  0
 41 42  4  0  0  0
 42 43  4  0  0  0
 43 44  4  0  0  0
 44 45  4  0  0  0
  2 46  1  0  0  0
  2 47  1  0  0  0
  3 48  1  0  0  0
  6 49  1  0  0  0
  8 50  1  0  0  0
  8 51  1  0  0  0
  8 52  1  0  0  0
  9 53  1  0  0  0
  9 54  1  0  0  0
  9 55  1  0  0  0
 10 56  1  0  0  0
 10 57  1  0  0  0
 10 58  1  0  0  0
 12 59  1  0  0  0
 12 60  1  0  0  0
 13 61  1  0  0  0
 13 62  1  0  0  0
 14 63  1  0  0  0
 14 64  1  0  0  0
 15 65  1  0  0  0
 16 66  1  0  0  0
 17 67  1  0  0  0
 17 68  1  0  0  0
 18 69  1  0  0  0
 19 70  1  0  0  0
 19 71  1  0  0  0
 21 72  1  0  0  0
 22 73  1  0  0  0
 23 74  1  0  0  0
 24 75  1  0  0  0
 25 76  1  0  0  0
 28 77  1  0  0  0
 29 78  1  0  0  0
 30 79  1  0  0  0
 31 80  1  0  0  0
 32 81  1  0  0  0
 32 82  1  0  0  0
 34 83  1  0  0  0
 35 84  1  0  0  0
 36 85  1  0  0  0
 37 86  1  0  0  0
 39 87  1  0  0  0
 39 88  1  0  0  0
 41 89  1  0  0  0
 43 90  1  0  0  0
 44 91  1  0  0  0
 45 92  1  0  0  0
M  END
$$$$
