### 
### Created by X-TOOL on Sun Jun  3 11:16:46 2007
### 

@<TRIPOS>MOLECULE
2avs_ligand
   92    96     1     0     0
SMALL
GAST_HUCK


@<TRIPOS>ATOM
      1 N1         22.4450   34.8440   16.1780 N.3       1 SUB1       -0.285
      2 C1         21.0910   34.7250   15.5750 C.3       1 SUB1        0.034
      3 C2         20.2950   33.5670   16.1210 C.3       1 SUB1        0.114
      4 C3         18.9550   33.5470   15.4590 C.2       1 SUB1        0.195
      5 O1         18.8220   33.1750   14.2840 O.2       1 SUB1       -0.395
      6 N2         17.9760   33.9960   16.2110 N.am      1 SUB1       -0.280
      7 C4         16.5460   34.0910   15.7640 C.3       1 SUB1        0.045
      8 C5         15.8040   34.6790   16.9650 C.3       1 SUB1       -0.040
      9 C6         16.0250   32.7930   15.4150 C.3       1 SUB1       -0.040
     10 C7         16.4750   35.0410   14.6250 C.3       1 SUB1       -0.040
     11 N3         21.0870   32.3120   15.8580 N.3       1 SUB1       -0.278
     12 C8         22.4500   32.3980   16.4160 C.3       1 SUB1        0.014
     13 C9         23.1680   33.6540   15.8720 C.3       1 SUB1        0.014
     14 C10        20.4550   31.1210   16.4030 C.3       1 SUB1        0.028
     15 C11        20.6130   29.9120   15.5060 C.3       1 SUB1        0.071
     16 O2         20.6030   28.7120   16.2840 O.3       1 SUB1       -0.390
     17 C12        19.4780   29.8040   14.4820 C.3       1 SUB1       -0.004
     18 C13        19.5580   28.6430   13.5010 C.3       1 SUB1        0.061
     19 C14        18.2620   28.5260   12.6700 C.3       1 SUB1        0.001
     20 C15        18.2940   27.5220   11.5900 C.ar      1 SUB1       -0.041
     21 C16        18.4210   26.1680   11.8720 C.ar      1 SUB1       -0.060
     22 C17        18.4530   25.2370   10.8450 C.ar      1 SUB1       -0.069
     23 C18        18.3730   25.6420    9.5080 C.ar      1 SUB1       -0.069
     24 C19        18.2450   27.0060    9.2440 C.ar      1 SUB1       -0.069
     25 C20        18.1830   27.9270   10.2500 C.ar      1 SUB1       -0.060
     26 C21        20.7160   28.7700   12.5140 C.2       1 SUB1        0.183
     27 O3         20.9860   29.8580   11.9420 O.2       1 SUB1       -0.396
     28 N4         21.3860   27.6660   12.2640 N.am      1 SUB1       -0.271
     29 C22        22.2740   27.5340   11.1350 C.3       1 SUB1        0.101
     30 C23        22.1980   26.2110   10.4130 C.3       1 SUB1        0.095
     31 O4         22.1160   25.1530   11.3660 O.3       1 SUB1       -0.386
     32 C24        23.5390   26.1090    9.6840 C.3       1 SUB1        0.009
     33 C25        24.5400   26.8250   10.5540 C.ar      1 SUB1       -0.036
     34 C26        25.9030   26.8170   10.6690 C.ar      1 SUB1       -0.067
     35 C27        26.5310   27.5940   11.6000 C.ar      1 SUB1       -0.075
     36 C28        25.8220   28.4500   12.4520 C.ar      1 SUB1       -0.075
     37 C29        24.4400   28.4810   12.3620 C.ar      1 SUB1       -0.065
     38 C30        23.7590   27.7090   11.4620 C.ar      1 SUB1       -0.013
     39 C31        23.1370   36.0060   15.5760 C.3       1 SUB1        0.039
     40 C32        22.5420   37.3420   15.9960 C.ar      1 SUB1       -0.001
     41 C33        22.4430   37.6860   17.3480 C.ar      1 SUB1        0.014
     42 N5         21.9150   38.8730   17.7980 N.ar      1 SUB1       -0.304
     43 C34        21.5130   39.7450   16.8190 C.ar      1 SUB1        0.004
     44 C35        21.6110   39.4840   15.4540 C.ar      1 SUB1       -0.040
     45 C36        22.1070   38.2470   15.0610 C.ar      1 SUB1       -0.039
     46 H          21.2200   34.5609   14.5052 H         1 SUB1        0.047
     47 H          20.5450   35.6392   15.8080 H         1 SUB1        0.047
     48 H          20.1230   33.6524   17.1940 H         1 SUB1        0.072
     49 H          18.2016   34.2992   17.1584 H         1 SUB1        0.186
     50 H          14.7463   34.7815   16.7224 H         1 SUB1        0.025
     51 H          15.9188   34.0152   17.8219 H         1 SUB1        0.025
     52 H          16.2199   35.6579   17.2037 H         1 SUB1        0.025
     53 H          16.1410   32.1166   16.2619 H         1 SUB1        0.025
     54 H          14.9685   32.8829   15.1623 H         1 SUB1        0.025
     55 H          16.5729   32.4014   14.5579 H         1 SUB1        0.025
     56 H          15.4315   35.2116   14.3603 H         1 SUB1        0.025
     57 H          16.9375   35.9854   14.9119 H         1 SUB1        0.025
     58 H          17.0041   34.6209   13.7696 H         1 SUB1        0.025
     59 H          23.0122   31.5105   16.1256 H         1 SUB1        0.044
     60 H          22.3885   32.4633   17.5023 H         1 SUB1        0.044
     61 H          24.1512   33.7183   16.3382 H         1 SUB1        0.044
     62 H          23.2439   33.5656   14.7882 H         1 SUB1        0.044
     63 H          19.3891   31.3249   16.5045 H         1 SUB1        0.045
     64 H          20.9335   30.8950   17.3559 H         1 SUB1        0.045
     65 H          21.5620   30.0354   14.9843 H         1 SUB1        0.061
     66 H          20.7039   27.9544   15.7030 H         1 SUB1        0.210
     67 H          19.5263   30.7117   13.8805 H         1 SUB1        0.032
     68 H          18.5652   29.6509   15.0577 H         1 SUB1        0.032
     69 H          19.7112   27.7594   14.1206 H         1 SUB1        0.056
     70 H          18.1094   29.4937   12.1920 H         1 SUB1        0.045
     71 H          17.4760   28.2177   13.3594 H         1 SUB1        0.045
     72 H          18.4960   25.8351   12.9072 H         1 SUB1        0.056
     73 H          18.5415   24.1768   11.0820 H         1 SUB1        0.060
     74 H          18.4096   24.9141    8.6975 H         1 SUB1        0.056
     75 H          18.1932   27.3447    8.2092 H         1 SUB1        0.060
     76 H          18.0467   28.9819   10.0118 H         1 SUB1        0.056
     77 H          21.2731   26.8715   12.8936 H         1 SUB1        0.188
     78 H          21.9057   28.3461   10.5081 H         1 SUB1        0.073
     79 H          21.3363   26.1434    9.7489 H         1 SUB1        0.066
     80 H          22.0677   24.3121   10.9055 H         1 SUB1        0.210
     81 H          23.4846   26.5585    8.6925 H         1 SUB1        0.044
     82 H          23.8249   25.0690    9.5269 H         1 SUB1        0.044
     83 H          26.4951   26.1826   10.0094 H         1 SUB1        0.054
     84 H          27.6168   27.5465   11.6825 H         1 SUB1        0.054
     85 H          26.3468   29.0789   13.1711 H         1 SUB1        0.054
     86 H          23.8801   29.1388   13.0268 H         1 SUB1        0.054
     87 H          23.0368   35.9256   14.4936 H         1 SUB1        0.060
     88 H          24.1730   35.9850   15.9143 H         1 SUB1        0.060
     89 H          22.8053   36.9719   18.0875 H         1 SUB1        0.076
     90 H          21.0908   40.7013   17.1278 H         1 SUB1        0.077
     91 H          21.3078   40.2275   14.7168 H         1 SUB1        0.069
     92 H          22.1509   37.9936   14.0018 H         1 SUB1        0.068
@<TRIPOS>BOND
     1    1    2 1  
     2    1   13 1  
     3    1   39 1  
     4    2    3 1  
     5    3    4 1  
     6    3   11 1  
     7    4    5 2  
     8    4    6 am 
     9    6    7 1  
    10    7    8 1  
    11    7    9 1  
    12    7   10 1  
    13   11   12 1  
    14   11   14 1  
    15   12   13 1  
    16   14   15 1  
    17   15   16 1  
    18   15   17 1  
    19   17   18 1  
    20   18   19 1  
    21   18   26 1  
    22   19   20 1  
    23   20   21 ar 
    24   20   25 ar 
    25   21   22 ar 
    26   22   23 ar 
    27   23   24 ar 
    28   24   25 ar 
    29   26   27 2  
    30   26   28 am 
    31   28   29 1  
    32   29   30 1  
    33   29   38 1  
    34   30   31 1  
    35   30   32 1  
    36   32   33 1  
    37   33   34 ar 
    38   33   38 ar 
    39   34   35 ar 
    40   35   36 ar 
    41   36   37 ar 
    42   37   38 ar 
    43   39   40 1  
    44   40   41 ar 
    45   40   45 ar 
    46   41   42 ar 
    47   42   43 ar 
    48   43   44 ar 
    49   44   45 ar 
    50    2   46 1  
    51    2   47 1  
    52    3   48 1  
    53    6   49 1  
    54    8   50 1  
    55    8   51 1  
    56    8   52 1  
    57    9   53 1  
    58    9   54 1  
    59    9   55 1  
    60   10   56 1  
    61   10   57 1  
    62   10   58 1  
    63   12   59 1  
    64   12   60 1  
    65   13   61 1  
    66   13   62 1  
    67   14   63 1  
    68   14   64 1  
    69   15   65 1  
    70   16   66 1  
    71   17   67 1  
    72   17   68 1  
    73   18   69 1  
    74   19   70 1  
    75   19   71 1  
    76   21   72 1  
    77   22   73 1  
    78   23   74 1  
    79   24   75 1  
    80   25   76 1  
    81   28   77 1  
    82   29   78 1  
    83   30   79 1  
    84   31   80 1  
    85   32   81 1  
    86   32   82 1  
    87   34   83 1  
    88   35   84 1  
    89   36   85 1  
    90   37   86 1  
    91   39   87 1  
    92   39   88 1  
    93   41   89 1  
    94   43   90 1  
    95   44   91 1  
    96   45   92 1  
@<TRIPOS>SUBSTRUCTURE
     1 SUB1        1 GROUP

