1qin_ligand
  -I-interpret- 

 51 51  0  0  0  0  0  0  0  0999 V2000
   -0.3707  -17.1931   11.8454 H   0  0  0  0  0
   -1.4993  -16.9852   13.0254 H   0  0  0  0  0
    0.0155  -17.4971   13.4163 H   0  0  0  0  0
    0.9816  -15.4239   12.7160 H   0  0  0  0  0
   -1.9665  -14.6543   12.2691 H   0  0  0  0  0
   -0.8393  -15.1389   10.9572 H   0  0  0  0  0
    4.0192   -9.9964    9.7671 H   0  0  0  0  0
    2.9902   -9.7109   11.2115 H   0  0  0  0  0
   -0.3837  -12.7321   12.8104 H   0  0  0  0  0
   -1.1914  -12.6255   11.2094 H   0  0  0  0  0
    0.8824  -10.9340   11.3127 H   0  0  0  0  0
    2.5510  -11.9943    9.2255 H   0  0  0  0  0
    4.5956  -12.7286    9.0654 H   0  0  0  0  0
    5.8863  -14.3177   11.0761 H   0  0  0  0  0
    6.6499  -12.6919   11.0824 H   0  0  0  0  0
    1.5537   -5.5413   11.1654 H   0  0  0  0  0
    3.3300   -6.5366    7.5621 H   0  0  0  0  0
   -0.8975   -6.1896    8.3207 H   0  0  0  0  0
    2.8574   -6.5564    5.0989 H   0  0  0  0  0
   -1.3434   -6.1466    5.8520 H   0  0  0  0  0
    0.4100   -6.3570    3.2680 I   0  0  0  0  0
   -0.2790  -14.9590   14.4160 C   0  0  0  0  0
   -1.1590  -15.4490   15.1660 O   0  5  0  0  0
    0.4540  -14.0230   14.8180 O   0  0  0  0  0
   -0.5200  -16.9060   12.8000 N   0  3  0  0  0
   -0.0870  -15.4980   12.9660 C   0  0  0  0  0
   -0.9160  -14.6570   11.9430 C   0  0  0  0  0
    3.0090  -10.1110   10.1870 C   0  0  0  0  0
    1.8390   -9.1320    9.1600 S   0  0  0  0  0
   -0.4400  -13.1680   11.8020 C   0  0  0  0  0
    0.9230  -12.9780   11.1270 C   0  0  0  0  0
    1.5750  -13.9460   10.7300 O   0  0  0  0  0
    1.3800  -11.7300   10.9680 N   0  0  0  0  0
    2.6770  -11.6010   10.2450 C   0  0  0  0  0
    3.8860  -12.3630   10.9250 C   0  0  0  0  0
    4.0220  -12.3970   12.1590 O   0  0  0  0  0
    4.7910  -12.8070   10.0430 N   0  0  0  0  0
    6.0840  -13.4160   10.4780 C   0  0  0  0  0
    6.8970  -13.7930    9.2230 C   0  0  0  0  0
    6.5450  -13.2850    8.1400 O   0  0  0  0  0
    7.8510  -14.5930    9.3550 O   0  5  0  0  0
    1.4380   -6.3690    9.5320 N   0  0  0  0  0
    1.3950   -5.3090   10.2580 O   0  0  0  0  0
    1.6180   -7.5660   10.0940 C   0  0  0  0  0
    1.7610   -7.6980   11.2960 O   0  0  0  0  0
    1.2300   -6.3400    8.0740 C   0  0  0  0  0
    2.3150   -6.4570    7.1900 C   0  0  0  0  0
   -0.0770   -6.2520    7.6150 C   0  0  0  0  0
    2.0510   -6.4680    5.8180 C   0  0  0  0  0
   -0.3340   -6.2440    6.2350 C   0  0  0  0  0
    0.7300   -6.3630    5.3960 C   0  0  0  0  0
 25  1  1  0  0  0
 25  2  1  0  0  0
 25  3  1  0  0  0
 26  4  1  0  0  0
 27  5  1  0  0  0
 27  6  1  0  0  0
 28  7  1  0  0  0
 28  8  1  0  0  0
 30  9  1  0  0  0
 30 10  1  0  0  0
 33 11  1  0  0  0
 34 12  1  0  0  0
 37 13  1  0  0  0
 38 14  1  0  0  0
 38 15  1  0  0  0
 43 16  1  0  0  0
 47 17  1  0  0  0
 48 18  1  0  0  0
 49 19  1  0  0  0
 50 20  1  0  0  0
 51 21  1  0  0  0
 26 22  1  0  0  0
 22 24  2  0  0  0
 22 23  1  0  0  0
 26 25  1  0  0  0
 27 26  1  0  0  0
 30 27  1  0  0  0
 31 30  1  0  0  0
 33 31  1  0  0  0
 31 32  2  0  0  0
 34 33  1  0  0  0
 35 34  1  0  0  0
 34 28  1  0  0  0
 28 29  1  0  0  0
 29 44  1  0  0  0
 44 45  2  0  0  0
 44 42  1  0  0  0
 42 46  1  0  0  0
 42 43  1  0  0  0
 46 48  4  0  0  0
 46 47  4  0  0  0
 47 49  4  0  0  0
 49 51  4  0  0  0
 50 51  4  0  0  0
 48 50  4  0  0  0
 37 35  1  0  0  0
 35 36  2  0  0  0
 37 38  1  0  0  0
 38 39  1  0  0  0
 39 41  1  0  0  0
 39 40  2  0  0  0
M  END
$$$$
