### 
### Created by X-TOOL on Mon Oct 24 23:51:33 2005
### 

@<TRIPOS>MOLECULE
1qin_ligand
   51    51     1     0     0
SMALL
GAST_HUCK


@<TRIPOS>ATOM
      1 H251       -0.3707  -17.1931   11.8454 H         1 SUB1        0.202
      2 H252       -1.4993  -16.9852   13.0254 H         1 SUB1        0.202
      3 H253        0.0155  -17.4971   13.4163 H         1 SUB1        0.202
      4 H261        0.9816  -15.4239   12.7160 H         1 SUB1        0.107
      5 H271       -1.9665  -14.6543   12.2691 H         1 SUB1        0.038
      6 H272       -0.8393  -15.1389   10.9572 H         1 SUB1        0.038
      7 H281        4.0192   -9.9964    9.7671 H         1 SUB1        0.045
      8 H282        2.9902   -9.7109   11.2115 H         1 SUB1        0.045
      9 H301       -0.3837  -12.7321   12.8104 H         1 SUB1        0.051
     10 H302       -1.1914  -12.6255   11.2094 H         1 SUB1        0.051
     11 H331        0.8824  -10.9340   11.3127 H         1 SUB1        0.188
     12 H341        2.5510  -11.9943    9.2255 H         1 SUB1        0.081
     13 H371        4.5956  -12.7286    9.0654 H         1 SUB1        0.190
     14 H381        5.8863  -14.3177   11.0761 H         1 SUB1        0.074
     15 H382        6.6499  -12.6919   11.0824 H         1 SUB1        0.074
     16 H431        1.5537   -5.5413   11.1654 H         1 SUB1        0.258
     17 H471        3.3300   -6.5366    7.5621 H         1 SUB1        0.050
     18 H481       -0.8975   -6.1896    8.3207 H         1 SUB1        0.050
     19 H491        2.8574   -6.5564    5.0989 H         1 SUB1        0.060
     20 H501       -1.3434   -6.1466    5.8520 H         1 SUB1        0.060
     21 I           0.4100   -6.3570    3.2680 I         1 SUB1       -0.063
     22 C          -0.2790  -14.9590   14.4160 C.2       1 SUB1        0.076
     23 OT1        -1.1590  -15.4490   15.1660 O.co2     1 SUB1       -0.561
     24 OT2         0.4540  -14.0230   14.8180 O.co2     1 SUB1       -0.561
     25 N          -0.5200  -16.9060   12.8000 N.4       1 SUB1        0.238
     26 CA         -0.0870  -15.4980   12.9660 C.3       1 SUB1        0.017
     27 CB         -0.9160  -14.6570   11.9430 C.3       1 SUB1        0.018
     28 CB2         3.0090  -10.1110   10.1870 C.3       1 SUB1        0.055
     29 SG2         1.8390   -9.1320    9.1600 S.3       1 SUB1       -0.019
     30 CG         -0.4400  -13.1680   11.8020 C.3       1 SUB1        0.045
     31 CD          0.9230  -12.9780   11.1270 C.2       1 SUB1        0.179
     32 OE          1.5750  -13.9460   10.7300 O.2       1 SUB1       -0.397
     33 N2          1.3800  -11.7300   10.9680 N.am      1 SUB1       -0.265
     34 CA2         2.6770  -11.6010   10.2450 C.3       1 SUB1        0.142
     35 C2          3.8860  -12.3630   10.9250 C.2       1 SUB1        0.206
     36 O2          4.0220  -12.3970   12.1590 O.2       1 SUB1       -0.394
     37 N3          4.7910  -12.8070   10.0430 N.am      1 SUB1       -0.271
     38 CA3         6.0840  -13.4160   10.4780 C.3       1 SUB1        0.070
     39 C3          6.8970  -13.7930    9.2230 C.2       1 SUB1        0.050
     40 O31         6.5450  -13.2850    8.1400 O.co2     1 SUB1       -0.564
     41 O32         7.8510  -14.5930    9.3550 O.co2     1 SUB1       -0.564
     42 NE2         1.4380   -6.3690    9.5320 N.am      1 SUB1       -0.079
     43 OF2         1.3950   -5.3090   10.2580 O.3       1 SUB1       -0.242
     44 CD2         1.6180   -7.5660   10.0940 C.2       1 SUB1        0.296
     45 OZ1         1.7610   -7.6980   11.2960 O.2       1 SUB1       -0.370
     46 CG2         1.2300   -6.3400    8.0740 C.ar      1 SUB1        0.105
     47 CL1         2.3150   -6.4570    7.1900 C.ar      1 SUB1       -0.036
     48 CL2        -0.0770   -6.2520    7.6150 C.ar      1 SUB1       -0.036
     49 CM1         2.0510   -6.4680    5.8180 C.ar      1 SUB1       -0.065
     50 CM2        -0.3340   -6.2440    6.2350 C.ar      1 SUB1       -0.065
     51 CZ          0.7300   -6.3630    5.3960 C.ar      1 SUB1       -0.007
@<TRIPOS>BOND
     1   25    1 1  
     2   25    2 1  
     3   25    3 1  
     4   26    4 1  
     5   27    5 1  
     6   27    6 1  
     7   28    7 1  
     8   28    8 1  
     9   30    9 1  
    10   30   10 1  
    11   33   11 1  
    12   34   12 1  
    13   37   13 1  
    14   38   14 1  
    15   38   15 1  
    16   43   16 1  
    17   47   17 1  
    18   48   18 1  
    19   49   19 1  
    20   50   20 1  
    21   51   21 1  
    22   26   22 1  
    23   22   24 2  
    24   22   23 2  
    25   26   25 1  
    26   27   26 1  
    27   30   27 1  
    28   31   30 1  
    29   33   31 am 
    30   31   32 2  
    31   34   33 1  
    32   35   34 1  
    33   34   28 1  
    34   28   29 1  
    35   29   44 1  
    36   44   45 2  
    37   44   42 am 
    38   42   46 1  
    39   42   43 1  
    40   46   48 ar 
    41   46   47 ar 
    42   47   49 ar 
    43   49   51 ar 
    44   50   51 ar 
    45   48   50 ar 
    46   37   35 am 
    47   35   36 2  
    48   37   38 1  
    49   38   39 1  
    50   39   41 2  
    51   39   40 2  
@<TRIPOS>SUBSTRUCTURE
     1 SUB1        1 GROUP

