### 
### Created by X-TOOL on Mon Oct 24 22:27:40 2005
### 

@<TRIPOS>MOLECULE
1fkb_ligand
  144   147     1     0     0
SMALL
GAST_HUCK


@<TRIPOS>ATOM
      1 H831        5.0537    6.5322   13.5251 H         1 SUB1        0.082
      2 H841        3.6751    5.2919   12.0545 H         1 SUB1        0.031
      3 H842        4.4581    6.5755   11.0717 H         1 SUB1        0.031
      4 H851        2.0461    6.2260   10.5072 H         1 SUB1        0.027
      5 H852        2.3990    7.8916   11.0800 H         1 SUB1        0.027
      6 H861        1.2992    5.5861   12.7659 H         1 SUB1        0.029
      7 H862        0.3717    7.0071   12.1767 H         1 SUB1        0.029
      8 H871        1.0568    7.2826   14.5259 H         1 SUB1        0.053
      9 H872        1.8453    8.5002   13.4666 H         1 SUB1        0.053
     10 H951        0.5451    6.5404   18.1211 H         1 SUB1        0.210
     11 H961        3.9354    8.5669   17.0655 H         1 SUB1        0.034
     12 H971        3.8517   10.1713   18.8779 H         1 SUB1        0.027
     13 H972        2.4335    9.3450   19.6079 H         1 SUB1        0.027
     14 H981        2.5920   10.8390   16.9594 H         1 SUB1        0.029
     15 H982        1.6057   11.2442   18.4051 H         1 SUB1        0.029
     16 H991        0.1149    9.4116   18.0176 H         1 SUB1        0.060
     17 H1001      -0.5049    9.7384   15.5765 H         1 SUB1        0.035
     18 H1002       0.9892   10.7199   15.3998 H         1 SUB1        0.035
     19 H1011       0.0861   12.3520   17.0288 H         1 SUB1        0.083
     20 H1041       0.0866   13.9978   15.6214 H         1 SUB1        0.030
     21 H1051      -1.8200   13.9671   13.0986 H         1 SUB1        0.048
     22 H1061       0.0779   15.9910   14.3920 H         1 SUB1        0.038
     23 H1071      -1.6918   16.0409   11.7672 H         1 SUB1        0.040
     24 H1081       0.4816   17.8515   12.8711 H         1 SUB1        0.058
     25 H1091      -1.1473   17.7599   10.2149 H         1 SUB1        0.047
     26 H1101       1.5383   19.0426   10.8523 H         1 SUB1        0.032
     27 H1102       0.7632   18.8853    9.2395 H         1 SUB1        0.032
     28 H1111       1.5685   16.4874   10.8743 H         1 SUB1        0.053
     29 H1141       3.4989   17.7002   11.8687 H         1 SUB1        0.088
     30 H1161       5.4213   15.8938   11.9471 H         1 SUB1        0.080
     31 H1171       5.1107   14.3098   10.2504 H         1 SUB1        0.213
     32 H1191       3.0422   13.7934   10.5036 H         1 SUB1        0.027
     33 H1201       1.3784   13.4861   13.1008 H         1 SUB1        0.060
     34 H1231       2.8252   11.2392   14.5556 H         1 SUB1        0.052
     35 H1232       3.6255   12.7308   13.9546 H         1 SUB1        0.052
     36 H1241       4.9399   11.0657   12.4113 H         1 SUB1        0.068
     37 H1251       6.5632   10.3547   14.1867 H         1 SUB1        0.033
     38 H1261       7.3353   12.6388   14.7817 H         1 SUB1        0.027
     39 H1262       5.8046   13.2848   14.0989 H         1 SUB1        0.027
     40 H1271       6.4047   12.4719   11.9094 H         1 SUB1        0.030
     41 H1281       8.6194   14.1191   13.1955 H         1 SUB1        0.029
     42 H1282       7.0250   14.7308   12.6383 H         1 SUB1        0.029
     43 H1291       7.5771   14.2156   10.3137 H         1 SUB1        0.062
     44 H1311      10.2807   13.1702   11.3589 H         1 SUB1        0.062
     45 H1321      10.4171   12.4970    9.1335 H         1 SUB1        0.210
     46 H1331       9.6187   10.9021   10.7936 H         1 SUB1        0.029
     47 H1332       8.0218   11.4650   10.1937 H         1 SUB1        0.029
     48 H1341       7.7612   10.5199   12.4189 H         1 SUB1        0.027
     49 H1342       9.0646   11.5769   13.0599 H         1 SUB1        0.027
     50 H1351       4.5233    6.4870   18.3071 H         1 SUB1        0.023
     51 H1352       3.7315    7.1599   19.7723 H         1 SUB1        0.023
     52 H1353       5.1733    7.9744   19.0763 H         1 SUB1        0.023
     53 H1361      -2.5890   12.2238   13.6638 H         1 SUB1        0.046
     54 H1362      -3.1066   11.4478   15.1989 H         1 SUB1        0.046
     55 H1363      -1.8705   10.6553   14.1641 H         1 SUB1        0.046
     56 H1371      -1.9980   19.5625   11.6702 H         1 SUB1        0.026
     57 H1372      -1.1214   20.2381   10.2554 H         1 SUB1        0.026
     58 H1373      -0.3305   20.2003   11.8678 H         1 SUB1        0.026
     59 H1381       1.6774   15.4022    8.6509 H         1 SUB1        0.026
     60 H1382       1.1585   16.9403    7.8818 H         1 SUB1        0.026
     61 H1383       0.0480   16.0744    8.9970 H         1 SUB1        0.026
     62 H1391       2.4619   14.8335   13.9888 H         1 SUB1        0.038
     63 H1392       2.8694   16.5169   13.5129 H         1 SUB1        0.038
     64 H1393       4.1606   15.4088   14.0888 H         1 SUB1        0.038
     65 H1401       0.1533   13.7974   10.9479 H         1 SUB1        0.027
     66 H1402      -0.1221   12.1516   11.6128 H         1 SUB1        0.027
     67 H1403       1.0222   12.3893   10.2487 H         1 SUB1        0.027
     68 H1411       4.9759   10.1799   16.0502 H         1 SUB1        0.023
     69 H1412       4.8089   11.9684   16.0564 H         1 SUB1        0.023
     70 H1413       6.3947   11.2131   16.4323 H         1 SUB1        0.023
     71 H1421      -2.9387   11.8158   18.7908 H         1 SUB1        0.053
     72 H1422      -2.5048   13.0936   17.6053 H         1 SUB1        0.053
     73 H1423      -1.3177   12.5870   18.8546 H         1 SUB1        0.053
     74 H1431       6.0932   19.8789   10.9111 H         1 SUB1        0.053
     75 H1432       4.9156   19.4714   12.2048 H         1 SUB1        0.053
     76 H1433       4.3329   19.8729   10.5538 H         1 SUB1        0.053
     77 H1441       8.9709   17.4297   10.6378 H         1 SUB1        0.052
     78 H1442       7.4142   16.6694   11.1122 H         1 SUB1        0.052
     79 H1443       8.1243   16.3300    9.4975 H         1 SUB1        0.052
     80 C1          4.6330    8.5000   12.8470 C.2       1 SUB1        0.260
     81 O1          4.2640    9.5930   13.6790 O.3       1 SUB1       -0.269
     82 O2          5.3670    8.7260   11.8880 O.2       1 SUB1       -0.368
     83 C2          4.1770    7.0700   13.1350 C.3       1 SUB1        0.146
     84 C3          3.7200    6.3740   11.8620 C.3       1 SUB1       -0.011
     85 C4          2.3540    6.8320   11.3720 C.3       1 SUB1       -0.047
     86 C5          1.3600    6.6530   12.5050 C.3       1 SUB1       -0.032
     87 C6          1.7830    7.4300   13.7130 C.3       1 SUB1        0.038
     88 N7          3.1050    6.9340   14.1270 N.am      1 SUB1       -0.240
     89 C8          3.3850    6.5490   15.3820 C.2       1 SUB1        0.278
     90 O3          4.5520    6.2370   15.6540 O.2       1 SUB1       -0.361
     91 C9          2.3970    6.4090   16.3810 C.2       1 SUB1        0.293
     92 O4          1.7830    5.3390   16.4740 O.2       1 SUB1       -0.285
     93 C10         2.0560    7.5410   17.3680 C.3       1 SUB1        0.251
     94 O5          1.2800    8.4570   16.6310 O.3       1 SUB1       -0.344
     95 O6          1.3100    6.9920   18.4580 O.3       1 SUB1       -0.364
     96 C11         3.3320    8.2820   17.9400 C.3       1 SUB1        0.017
     97 C12         2.9420    9.5910   18.6640 C.3       1 SUB1       -0.044
     98 C13         2.0100   10.4230   17.7950 C.3       1 SUB1       -0.026
     99 C14         0.8420    9.6280   17.2210 C.3       1 SUB1        0.065
    100 C15         0.1930   10.4130   16.0940 C.3       1 SUB1        0.014
    101 C16        -0.5820   11.6640   16.4900 C.3       1 SUB1        0.102
    102 O7         -1.6270   11.2720   17.3240 O.3       1 SUB1       -0.362
    103 C17        -1.1450   12.3710   15.2760 C.2       1 SUB1       -0.025
    104 C18        -0.6720   13.5710   14.9670 C.2       1 SUB1       -0.078
    105 C19        -1.0960   14.3670   13.8070 C.2       1 SUB1       -0.100
    106 C20        -0.5860   15.5780   13.6340 C.2       1 SUB1       -0.100
    107 C21        -0.9000   16.3770   12.4350 C.2       1 SUB1       -0.093
    108 C22        -0.2480   17.4880   12.1490 C.2       1 SUB1       -0.086
    109 C23        -0.4500   18.2890   10.8810 C.3       1 SUB1       -0.017
    110 C24         0.9110   18.4010   10.2160 C.3       1 SUB1       -0.022
    111 C25         1.6740   17.1120    9.9750 C.3       1 SUB1        0.035
    112 C26         3.1570   17.3910    9.7710 C.2       1 SUB1        0.141
    113 O8          3.6110   17.6690    8.6630 O.2       1 SUB1       -0.388
    114 C27         4.0480   17.2970   11.0050 C.3       1 SUB1        0.165
    115 O9          5.2100   18.0500   10.7780 O.3       1 SUB1       -0.356
    116 C28         4.5130   15.8410   11.3290 C.3       1 SUB1        0.123
    117 O10         4.8240   15.2000   10.0840 O.3       1 SUB1       -0.375
    118 C29         3.4620   15.0140   12.0940 C.2       1 SUB1       -0.048
    119 C30         2.8080   13.9890   11.5490 C.2       1 SUB1       -0.086
    120 C31         1.7730   13.0420   12.1750 C.3       1 SUB1        0.036
    121 C32         2.4330   11.7010   12.4950 C.2       1 SUB1        0.114
    122 O11         2.2640   10.7010   11.7910 O.2       1 SUB1       -0.390
    123 C33         3.3580   11.6930   13.7070 C.3       1 SUB1        0.053
    124 C34         4.6300   10.9090   13.4550 C.3       1 SUB1        0.106
    125 C35         5.8460   11.1690   14.3670 C.3       1 SUB1       -0.011
    126 C36         6.5510   12.4800   14.0270 C.3       1 SUB1       -0.045
    127 C37         7.2100   12.5860   12.6500 C.3       1 SUB1       -0.038
    128 C38         7.8120   13.9830   12.4610 C.3       1 SUB1       -0.021
    129 C39         8.3860   14.2020   11.0590 C.3       1 SUB1        0.084
    130 O12         9.0410   15.4440   11.0860 O.3       1 SUB1       -0.377
    131 C40         9.3990   13.0570   10.7110 C.3       1 SUB1        0.081
    132 O13         9.8030   13.1890    9.3490 O.3       1 SUB1       -0.389
    133 C41         8.8190   11.6450   10.9300 C.3       1 SUB1       -0.024
    134 C42         8.2430   11.5050   12.3320 C.3       1 SUB1       -0.048
    135 C43         4.2580    7.4120   18.8400 C.3       1 SUB1       -0.058
    136 C44        -2.2570   11.6210   14.5220 C.3       1 SUB1       -0.020
    137 C45        -1.0140   19.6680   11.1900 C.3       1 SUB1       -0.053
    138 C46         1.0990   16.3270    8.7930 C.3       1 SUB1       -0.046
    139 C47         3.2220   15.4750   13.5190 C.3       1 SUB1       -0.037
    140 C48         0.6250   12.8300   11.1750 C.3       1 SUB1       -0.043
    141 C49         5.4820   11.1300   15.8240 C.3       1 SUB1       -0.060
    142 C50        -2.1230   12.2430   18.1890 C.3       1 SUB1        0.041
    143 C51         5.1340   19.3870   11.1300 C.3       1 SUB1        0.040
    144 C52         8.3520   16.5240   10.5560 C.3       1 SUB1        0.037
@<TRIPOS>BOND
     1   80   82 2  
     2   83   80 1  
     3   83   84 1  
     4   88   83 1  
     5   84   85 1  
     6   86   85 1  
     7   87   86 1  
     8   88   87 1  
     9   89   88 am 
    10   89   90 2  
    11   91   89 1  
    12   91   92 2  
    13   93   91 1  
    14   93   95 1  
    15   93   96 1  
    16   97   96 1  
    17   96  135 1  
    18   98   97 1  
    19   99   98 1  
    20  100   99 1  
    21  101  100 1  
    22  101  102 1  
    23  103  101 1  
    24  102  142 1  
    25  103  136 1  
    26  105  104 1  
    27  106  105 2  
    28  107  106 1  
    29  108  109 1  
    30  109  110 1  
    31  109  137 1  
    32  110  111 1  
    33  111  112 1  
    34  111  138 1  
    35  112  113 2  
    36  112  114 1  
    37  114  115 1  
    38  114  116 1  
    39  115  143 1  
    40  116  117 1  
    41  116  118 1  
    42  118  139 1  
    43  120  119 1  
    44  121  120 1  
    45  120  140 1  
    46  121  122 2  
    47  123  121 1  
    48  124  123 1  
    49  124  125 1  
    50  125  126 1  
    51  125  141 1  
    52  126  127 1  
    53  127  128 1  
    54  127  134 1  
    55  128  129 1  
    56  129  130 1  
    57  129  131 1  
    58  130  144 1  
    59  131  132 1  
    60  133  131 1  
    61  134  133 1  
    62   80   81 1  
    63   81  124 1  
    64   99   94 1  
    65   94   93 1  
    66  104  103 2  
    67  107  108 2  
    68  118  119 2  
    69   83    1 1  
    70   84    2 1  
    71   84    3 1  
    72   85    4 1  
    73   85    5 1  
    74   86    6 1  
    75   86    7 1  
    76   87    8 1  
    77   87    9 1  
    78   95   10 1  
    79   96   11 1  
    80   97   12 1  
    81   97   13 1  
    82   98   14 1  
    83   98   15 1  
    84   99   16 1  
    85  100   17 1  
    86  100   18 1  
    87  101   19 1  
    88  104   20 1  
    89  105   21 1  
    90  106   22 1  
    91  107   23 1  
    92  108   24 1  
    93  109   25 1  
    94  110   26 1  
    95  110   27 1  
    96  111   28 1  
    97  114   29 1  
    98  116   30 1  
    99  117   31 1  
   100  119   32 1  
   101  120   33 1  
   102  123   34 1  
   103  123   35 1  
   104  124   36 1  
   105  125   37 1  
   106  126   38 1  
   107  126   39 1  
   108  127   40 1  
   109  128   41 1  
   110  128   42 1  
   111  129   43 1  
   112  131   44 1  
   113  132   45 1  
   114  133   46 1  
   115  133   47 1  
   116  134   48 1  
   117  134   49 1  
   118  135   50 1  
   119  135   51 1  
   120  135   52 1  
   121  136   53 1  
   122  136   54 1  
   123  136   55 1  
   124  137   56 1  
   125  137   57 1  
   126  137   58 1  
   127  138   59 1  
   128  138   60 1  
   129  138   61 1  
   130  139   62 1  
   131  139   63 1  
   132  139   64 1  
   133  140   65 1  
   134  140   66 1  
   135  140   67 1  
   136  141   68 1  
   137  141   69 1  
   138  141   70 1  
   139  142   71 1  
   140  142   72 1  
   141  142   73 1  
   142  143   74 1  
   143  143   75 1  
   144  143   76 1  
   145  144   77 1  
   146  144   78 1  
   147  144   79 1  
@<TRIPOS>SUBSTRUCTURE
     1 SUB1        1 GROUP

