1fkb_ligand
  -I-interpret- 

144147  0  0  0  0  0  0  0  0999 V2000
    5.0537    6.5322   13.5251 H   0  0  0  0  0
    3.6751    5.2919   12.0545 H   0  0  0  0  0
    4.4581    6.5755   11.0717 H   0  0  0  0  0
    2.0461    6.2260   10.5072 H   0  0  0  0  0
    2.3990    7.8916   11.0800 H   0  0  0  0  0
    1.2992    5.5861   12.7659 H   0  0  0  0  0
    0.3717    7.0071   12.1767 H   0  0  0  0  0
    1.0568    7.2826   14.5259 H   0  0  0  0  0
    1.8453    8.5002   13.4666 H   0  0  0  0  0
    0.5451    6.5404   18.1211 H   0  0  0  0  0
    3.9354    8.5669   17.0655 H   0  0  0  0  0
    3.8517   10.1713   18.8779 H   0  0  0  0  0
    2.4335    9.3450   19.6079 H   0  0  0  0  0
    2.5920   10.8390   16.9594 H   0  0  0  0  0
    1.6057   11.2442   18.4051 H   0  0  0  0  0
    0.1149    9.4116   18.0176 H   0  0  0  0  0
   -0.5049    9.7384   15.5765 H   0  0  0  0  0
    0.9892   10.7199   15.3998 H   0  0  0  0  0
    0.0861   12.3520   17.0288 H   0  0  0  0  0
    0.0866   13.9978   15.6214 H   0  0  0  0  0
   -1.8200   13.9671   13.0986 H   0  0  0  0  0
    0.0779   15.9910   14.3920 H   0  0  0  0  0
   -1.6918   16.0409   11.7672 H   0  0  0  0  0
    0.4816   17.8515   12.8711 H   0  0  0  0  0
   -1.1473   17.7599   10.2149 H   0  0  0  0  0
    1.5383   19.0426   10.8523 H   0  0  0  0  0
    0.7632   18.8853    9.2395 H   0  0  0  0  0
    1.5685   16.4874   10.8743 H   0  0  0  0  0
    3.4989   17.7002   11.8687 H   0  0  0  0  0
    5.4213   15.8938   11.9471 H   0  0  0  0  0
    5.1107   14.3098   10.2504 H   0  0  0  0  0
    3.0422   13.7934   10.5036 H   0  0  0  0  0
    1.3784   13.4861   13.1008 H   0  0  0  0  0
    2.8252   11.2392   14.5556 H   0  0  0  0  0
    3.6255   12.7308   13.9546 H   0  0  0  0  0
    4.9399   11.0657   12.4113 H   0  0  0  0  0
    6.5632   10.3547   14.1867 H   0  0  0  0  0
    7.3353   12.6388   14.7817 H   0  0  0  0  0
    5.8046   13.2848   14.0989 H   0  0  0  0  0
    6.4047   12.4719   11.9094 H   0  0  0  0  0
    8.6194   14.1191   13.1955 H   0  0  0  0  0
    7.0250   14.7308   12.6383 H   0  0  0  0  0
    7.5771   14.2156   10.3137 H   0  0  0  0  0
   10.2807   13.1702   11.3589 H   0  0  0  0  0
   10.4171   12.4970    9.1335 H   0  0  0  0  0
    9.6187   10.9021   10.7936 H   0  0  0  0  0
    8.0218   11.4650   10.1937 H   0  0  0  0  0
    7.7612   10.5199   12.4189 H   0  0  0  0  0
    9.0646   11.5769   13.0599 H   0  0  0  0  0
    4.5233    6.4870   18.3071 H   0  0  0  0  0
    3.7315    7.1599   19.7723 H   0  0  0  0  0
    5.1733    7.9744   19.0763 H   0  0  0  0  0
   -2.5890   12.2238   13.6638 H   0  0  0  0  0
   -3.1066   11.4478   15.1989 H   0  0  0  0  0
   -1.8705   10.6553   14.1641 H   0  0  0  0  0
   -1.9980   19.5625   11.6702 H   0  0  0  0  0
   -1.1214   20.2381   10.2554 H   0  0  0  0  0
   -0.3305   20.2003   11.8678 H   0  0  0  0  0
    1.6774   15.4022    8.6509 H   0  0  0  0  0
    1.1585   16.9403    7.8818 H   0  0  0  0  0
    0.0480   16.0744    8.9970 H   0  0  0  0  0
    2.4619   14.8335   13.9888 H   0  0  0  0  0
    2.8694   16.5169   13.5129 H   0  0  0  0  0
    4.1606   15.4088   14.0888 H   0  0  0  0  0
    0.1533   13.7974   10.9479 H   0  0  0  0  0
   -0.1221   12.1516   11.6128 H   0  0  0  0  0
    1.0222   12.3893   10.2487 H   0  0  0  0  0
    4.9759   10.1799   16.0502 H   0  0  0  0  0
    4.8089   11.9684   16.0564 H   0  0  0  0  0
    6.3947   11.2131   16.4323 H   0  0  0  0  0
   -2.9387   11.8158   18.7908 H   0  0  0  0  0
   -2.5048   13.0936   17.6053 H   0  0  0  0  0
   -1.3177   12.5870   18.8546 H   0  0  0  0  0
    6.0932   19.8789   10.9111 H   0  0  0  0  0
    4.9156   19.4714   12.2048 H   0  0  0  0  0
    4.3329   19.8729   10.5538 H   0  0  0  0  0
    8.9709   17.4297   10.6378 H   0  0  0  0  0
    7.4142   16.6694   11.1122 H   0  0  0  0  0
    8.1243   16.3300    9.4975 H   0  0  0  0  0
    4.6330    8.5000   12.8470 C   0  0  0  0  0
    4.2640    9.5930   13.6790 O   0  0  0  0  0
    5.3670    8.7260   11.8880 O   0  0  0  0  0
    4.1770    7.0700   13.1350 C   0  0  0  0  0
    3.7200    6.3740   11.8620 C   0  0  0  0  0
    2.3540    6.8320   11.3720 C   0  0  0  0  0
    1.3600    6.6530   12.5050 C   0  0  0  0  0
    1.7830    7.4300   13.7130 C   0  0  0  0  0
    3.1050    6.9340   14.1270 N   0  0  0  0  0
    3.3850    6.5490   15.3820 C   0  0  0  0  0
    4.5520    6.2370   15.6540 O   0  0  0  0  0
    2.3970    6.4090   16.3810 C   0  0  0  0  0
    1.7830    5.3390   16.4740 O   0  0  0  0  0
    2.0560    7.5410   17.3680 C   0  0  0  0  0
    1.2800    8.4570   16.6310 O   0  0  0  0  0
    1.3100    6.9920   18.4580 O   0  0  0  0  0
    3.3320    8.2820   17.9400 C   0  0  0  0  0
    2.9420    9.5910   18.6640 C   0  0  0  0  0
    2.0100   10.4230   17.7950 C   0  0  0  0  0
    0.8420    9.6280   17.2210 C   0  0  0  0  0
    0.1930   10.4130   16.0940 C   0  0  0  0  0
   -0.5820   11.6640   16.4900 C   0  0  0  0  0
   -1.6270   11.2720   17.3240 O   0  0  0  0  0
   -1.1450   12.3710   15.2760 C   0  0  0  0  0
   -0.6720   13.5710   14.9670 C   0  0  0  0  0
   -1.0960   14.3670   13.8070 C   0  0  0  0  0
   -0.5860   15.5780   13.6340 C   0  0  0  0  0
   -0.9000   16.3770   12.4350 C   0  0  0  0  0
   -0.2480   17.4880   12.1490 C   0  0  0  0  0
   -0.4500   18.2890   10.8810 C   0  0  0  0  0
    0.9110   18.4010   10.2160 C   0  0  0  0  0
    1.6740   17.1120    9.9750 C   0  0  0  0  0
    3.1570   17.3910    9.7710 C   0  0  0  0  0
    3.6110   17.6690    8.6630 O   0  0  0  0  0
    4.0480   17.2970   11.0050 C   0  0  0  0  0
    5.2100   18.0500   10.7780 O   0  0  0  0  0
    4.5130   15.8410   11.3290 C   0  0  0  0  0
    4.8240   15.2000   10.0840 O   0  0  0  0  0
    3.4620   15.0140   12.0940 C   0  0  0  0  0
    2.8080   13.9890   11.5490 C   0  0  0  0  0
    1.7730   13.0420   12.1750 C   0  0  0  0  0
    2.4330   11.7010   12.4950 C   0  0  0  0  0
    2.2640   10.7010   11.7910 O   0  0  0  0  0
    3.3580   11.6930   13.7070 C   0  0  0  0  0
    4.6300   10.9090   13.4550 C   0  0  0  0  0
    5.8460   11.1690   14.3670 C   0  0  0  0  0
    6.5510   12.4800   14.0270 C   0  0  0  0  0
    7.2100   12.5860   12.6500 C   0  0  0  0  0
    7.8120   13.9830   12.4610 C   0  0  0  0  0
    8.3860   14.2020   11.0590 C   0  0  0  0  0
    9.0410   15.4440   11.0860 O   0  0  0  0  0
    9.3990   13.0570   10.7110 C   0  0  0  0  0
    9.8030   13.1890    9.3490 O   0  0  0  0  0
    8.8190   11.6450   10.9300 C   0  0  0  0  0
    8.2430   11.5050   12.3320 C   0  0  0  0  0
    4.2580    7.4120   18.8400 C   0  0  0  0  0
   -2.2570   11.6210   14.5220 C   0  0  0  0  0
   -1.0140   19.6680   11.1900 C   0  0  0  0  0
    1.0990   16.3270    8.7930 C   0  0  0  0  0
    3.2220   15.4750   13.5190 C   0  0  0  0  0
    0.6250   12.8300   11.1750 C   0  0  0  0  0
    5.4820   11.1300   15.8240 C   0  0  0  0  0
   -2.1230   12.2430   18.1890 C   0  0  0  0  0
    5.1340   19.3870   11.1300 C   0  0  0  0  0
    8.3520   16.5240   10.5560 C   0  0  0  0  0
 80 82  2  0  0  0
 83 80  1  0  0  0
 83 84  1  0  0  0
 88 83  1  0  0  0
 84 85  1  0  0  0
 86 85  1  0  0  0
 87 86  1  0  0  0
 88 87  1  0  0  0
 89 88  1  0  0  0
 89 90  2  0  0  0
 91 89  1  0  0  0
 91 92  2  0  0  0
 93 91  1  0  0  0
 93 95  1  0  0  0
 93 96  1  0  0  0
 97 96  1  0  0  0
 96135  1  0  0  0
 98 97  1  0  0  0
 99 98  1  0  0  0
100 99  1  0  0  0
101100  1  0  0  0
101102  1  0  0  0
103101  1  0  0  0
102142  1  0  0  0
103136  1  0  0  0
105104  1  0  0  0
106105  2  0  0  0
107106  1  0  0  0
108109  1  0  0  0
109110  1  0  0  0
109137  1  0  0  0
110111  1  0  0  0
111112  1  0  0  0
111138  1  0  0  0
112113  2  0  0  0
112114  1  0  0  0
114115  1  0  0  0
114116  1  0  0  0
115143  1  0  0  0
116117  1  0  0  0
116118  1  0  0  0
118139  1  0  0  0
120119  1  0  0  0
121120  1  0  0  0
120140  1  0  0  0
121122  2  0  0  0
123121  1  0  0  0
124123  1  0  0  0
124125  1  0  0  0
125126  1  0  0  0
125141  1  0  0  0
126127  1  0  0  0
127128  1  0  0  0
127134  1  0  0  0
128129  1  0  0  0
129130  1  0  0  0
129131  1  0  0  0
130144  1  0  0  0
131132  1  0  0  0
133131  1  0  0  0
134133  1  0  0  0
 80 81  1  0  0  0
 81124  1  0  0  0
 99 94  1  0  0  0
 94 93  1  0  0  0
104103  2  0  0  0
107108  2  0  0  0
118119  2  0  0  0
 83  1  1  0  0  0
 84  2  1  0  0  0
 84  3  1  0  0  0
 85  4  1  0  0  0
 85  5  1  0  0  0
 86  6  1  0  0  0
 86  7  1  0  0  0
 87  8  1  0  0  0
 87  9  1  0  0  0
 95 10  1  0  0  0
 96 11  1  0  0  0
 97 12  1  0  0  0
 97 13  1  0  0  0
 98 14  1  0  0  0
 98 15  1  0  0  0
 99 16  1  0  0  0
100 17  1  0  0  0
100 18  1  0  0  0
101 19  1  0  0  0
104 20  1  0  0  0
105 21  1  0  0  0
106 22  1  0  0  0
107 23  1  0  0  0
108 24  1  0  0  0
109 25  1  0  0  0
110 26  1  0  0  0
110 27  1  0  0  0
111 28  1  0  0  0
114 29  1  0  0  0
116 30  1  0  0  0
117 31  1  0  0  0
119 32  1  0  0  0
120 33  1  0  0  0
123 34  1  0  0  0
123 35  1  0  0  0
124 36  1  0  0  0
125 37  1  0  0  0
126 38  1  0  0  0
126 39  1  0  0  0
127 40  1  0  0  0
128 41  1  0  0  0
128 42  1  0  0  0
129 43  1  0  0  0
131 44  1  0  0  0
132 45  1  0  0  0
133 46  1  0  0  0
133 47  1  0  0  0
134 48  1  0  0  0
134 49  1  0  0  0
135 50  1  0  0  0
135 51  1  0  0  0
135 52  1  0  0  0
136 53  1  0  0  0
136 54  1  0  0  0
136 55  1  0  0  0
137 56  1  0  0  0
137 57  1  0  0  0
137 58  1  0  0  0
138 59  1  0  0  0
138 60  1  0  0  0
138 61  1  0  0  0
139 62  1  0  0  0
139 63  1  0  0  0
139 64  1  0  0  0
140 65  1  0  0  0
140 66  1  0  0  0
140 67  1  0  0  0
141 68  1  0  0  0
141 69  1  0  0  0
141 70  1  0  0  0
142 71  1  0  0  0
142 72  1  0  0  0
142 73  1  0  0  0
143 74  1  0  0  0
143 75  1  0  0  0
143 76  1  0  0  0
144 77  1  0  0  0
144 78  1  0  0  0
144 79  1  0  0  0
M  END
$$$$
