### 
### Created by X-TOOL on Mon Oct 24 23:18:11 2005
### 

@<TRIPOS>MOLECULE
2ayr_ligand
   68    72     1     0     0
SMALL
GAST_HUCK


@<TRIPOS>ATOM
      1 C5         32.2070    0.4660   28.2400 C.ar      1 SUB1       -0.026
      2 C6         29.8570    1.3550   28.2530 C.ar      1 SUB1       -0.068
      3 C7         27.9180   -0.0290   27.6560 C.ar      1 SUB1       -0.035
      4 C8         28.2180   -2.4130   27.0040 C.ar      1 SUB1       -0.055
      5 C10        32.8720    1.6290   27.7200 C.ar      1 SUB1       -0.057
      6 C13        26.5200   -0.1610   27.4720 C.ar      1 SUB1       -0.033
      7 C15        32.6480   -3.1980   25.8070 C.ar      1 SUB1       -0.036
      8 C17        34.2670    1.8030   27.9250 C.ar      1 SUB1       -0.040
      9 C20        33.2880   -3.2900   24.5500 C.ar      1 SUB1       -0.040
     10 C21        31.9560   -1.3950   23.7080 C.ar      1 SUB1       -0.040
     11 C22        35.0090    0.8240   28.6360 C.ar      1 SUB1        0.085
     12 C24        32.9480   -2.3840   23.4780 C.ar      1 SUB1        0.081
     13 C1         30.2020   -1.0240   27.5980 C.ar      1 SUB1        0.134
     14 C2         30.7510    0.2590   28.0310 C.ar      1 SUB1        0.013
     15 C3         28.7900   -1.1620   27.4180 C.ar      1 SUB1        0.017
     16 O4         31.0320   -2.1570   27.3520 O.3       1 SUB1       -0.257
     17 C9         31.6570   -2.2140   26.0460 C.ar      1 SUB1        0.109
     18 C11        32.9800   -0.5030   28.9590 C.ar      1 SUB1       -0.057
     19 C12        28.4600    1.2130   28.0670 C.ar      1 SUB1       -0.072
     20 C14        26.8220   -2.5290   26.8260 C.ar      1 SUB1       -0.030
     21 C16        31.3180   -1.3050   24.9650 C.ar      1 SUB1       -0.036
     22 C18        34.3670   -0.3240   29.1540 C.ar      1 SUB1       -0.040
     23 C19        25.9730   -1.4110   27.0580 C.ar      1 SUB1        0.087
     24 O23        24.6510   -1.5330   26.8790 O.3       1 SUB1       -0.333
     25 S25        36.7580    1.0300   28.9080 S.o2      1 SUB1       -0.007
     26 O26        33.5370   -2.4060   22.1890 O.3       1 SUB1       -0.323
     27 C27        38.0420   -0.2180   28.5040 C.3       1 SUB1        0.059
     28 O28        36.9320    1.3850   30.3880 O.2       1 SUB1       -0.170
     29 O29        37.1800    2.3840   28.3060 O.2       1 SUB1       -0.170
     30 C30        34.2630   -3.5730   21.7600 C.3       1 SUB1        0.081
     31 C31        33.2780   -4.5520   21.0860 C.3       1 SUB1        0.026
     32 N32        32.5200   -4.1440   19.9020 N.3       1 SUB1       -0.300
     33 C33        33.4010   -3.4750   18.9190 C.3       1 SUB1       -0.001
     34 C34        31.3630   -3.2510   20.2030 C.3       1 SUB1       -0.001
     35 C35        32.6540   -3.3240   17.5790 C.3       1 SUB1       -0.040
     36 C36        30.4990   -3.0460   18.9390 C.3       1 SUB1       -0.040
     37 C37        31.3680   -2.4930   17.7890 C.3       1 SUB1       -0.051
     38 H21        30.2568    2.3116   28.5694 H         1 SUB1        0.058
     39 H41        28.8590   -3.2693   26.8280 H         1 SUB1        0.063
     40 H51        32.3085    2.3745   27.1706 H         1 SUB1        0.059
     41 H61        25.8670    0.6867   27.6456 H         1 SUB1        0.048
     42 H71        32.9186   -3.8885   26.5976 H         1 SUB1        0.053
     43 H81        34.7653    2.6845   27.5380 H         1 SUB1        0.063
     44 H91        34.0436   -4.0503   24.3886 H         1 SUB1        0.052
     45 H101       31.6870   -0.7059   22.9156 H         1 SUB1        0.052
     46 H181       32.4934   -1.3854   29.3586 H         1 SUB1        0.059
     47 H191       27.8035    2.0581   28.2399 H         1 SUB1        0.047
     48 H201       26.3951   -3.4743   26.5111 H         1 SUB1        0.056
     49 H211       30.5624   -0.5445   25.1257 H         1 SUB1        0.053
     50 H221       34.9386   -1.0657   29.7001 H         1 SUB1        0.063
     51 H241       24.2285   -0.7047   27.0733 H         1 SUB1        0.249
     52 H271       39.0329    0.1739   28.7768 H         1 SUB1        0.047
     53 H272       38.0173   -0.4337   27.4257 H         1 SUB1        0.047
     54 H273       37.8454   -1.1420   29.0674 H         1 SUB1        0.047
     55 H301       34.7297   -4.0585   22.6298 H         1 SUB1        0.062
     56 H302       35.0426   -3.2800   21.0415 H         1 SUB1        0.062
     57 H311       32.5399   -4.8336   21.8514 H         1 SUB1        0.045
     58 H312       33.8623   -5.4379   20.7965 H         1 SUB1        0.045
     59 H331       34.3072   -4.0798   18.7675 H         1 SUB1        0.043
     60 H332       33.6825   -2.4807   19.2959 H         1 SUB1        0.043
     61 H341       31.7376   -2.2760   20.5481 H         1 SUB1        0.043
     62 H342       30.7480   -3.7079   20.9923 H         1 SUB1        0.043
     63 H351       32.3870   -4.3197   17.1952 H         1 SUB1        0.028
     64 H352       33.3044   -2.8136   16.8535 H         1 SUB1        0.028
     65 H361       29.6920   -2.3323   19.1612 H         1 SUB1        0.028
     66 H362       30.0633   -4.0093   18.6354 H         1 SUB1        0.028
     67 H371       30.7792   -2.5102   16.8600 H         1 SUB1        0.027
     68 H372       31.6504   -1.4564   18.0251 H         1 SUB1        0.027
@<TRIPOS>BOND
     1    1    5 ar 
     2   14    1 1  
     3    1   18 ar 
     4   14    2 ar 
     5    2   19 ar 
     6    3    6 ar 
     7   15    3 ar 
     8    3   19 ar 
     9   15    4 ar 
    10    4   20 ar 
    11    5    8 ar 
    12    6   23 ar 
    13    7    9 ar 
    14   17    7 ar 
    15    8   11 ar 
    16    9   12 ar 
    17   12   10 ar 
    18   10   21 ar 
    19   11   22 ar 
    20   11   25 1  
    21   12   26 1  
    22   13   14 ar 
    23   13   15 ar 
    24   16   13 1  
    25   16   17 1  
    26   17   21 ar 
    27   18   22 ar 
    28   20   23 ar 
    29   23   24 1  
    30   25   27 1  
    31   25   28 2  
    32   25   29 2  
    33   26   30 1  
    34   30   31 1  
    35   31   32 1  
    36   32   33 1  
    37   32   34 1  
    38   33   35 1  
    39   34   36 1  
    40   35   37 1  
    41   36   37 1  
    42    2   38 1  
    43    4   39 1  
    44    5   40 1  
    45    6   41 1  
    46    7   42 1  
    47    8   43 1  
    48    9   44 1  
    49   10   45 1  
    50   18   46 1  
    51   19   47 1  
    52   20   48 1  
    53   21   49 1  
    54   22   50 1  
    55   24   51 1  
    56   27   52 1  
    57   27   53 1  
    58   27   54 1  
    59   30   55 1  
    60   30   56 1  
    61   31   57 1  
    62   31   58 1  
    63   33   59 1  
    64   33   60 1  
    65   34   61 1  
    66   34   62 1  
    67   35   63 1  
    68   35   64 1  
    69   36   65 1  
    70   36   66 1  
    71   37   67 1  
    72   37   68 1  
@<TRIPOS>SUBSTRUCTURE
     1 SUB1        1 GROUP

