1iy7_ligand
  -I-interpret- 

 27 27  0  0  0  0  0  0  0  0999 V2000
    5.5640   -9.5750   12.5890 C   0  0  0  0  0
    6.4700   -8.6550   11.9840 C   0  0  0  0  0
    6.1860   -8.0880   10.7100 C   0  0  0  0  0
    4.9950   -8.4330   10.0260 C   0  0  0  0  0
    4.0960   -9.3430   10.6130 C   0  0  0  0  0
    4.3830   -9.9050   11.8760 C   0  0  0  0  0
    5.8360  -10.1860   13.9590 C   0  0  0  0  0
    5.3710   -9.3430   15.2250 C   0  0  0  0  0
    3.8240   -9.1650   15.2020 C   0  0  0  0  0
    3.4260   -7.9600   14.7460 O   0  5  0  0  0
    3.0340   -9.9880   15.5480 O   0  0  0  0  0
    5.6840   -9.9530   16.5590 N   0  0  0  0  0
    5.5240   -9.0860   18.0720 S   0  0  0  0  0
    6.5090   -7.7220   18.3080 N   0  0  0  0  0
    5.9080   -9.9330   19.1610 O   0  0  0  0  0
    4.2640   -8.4050   18.0460 O   0  0  0  0  0
    7.3844   -8.3848   12.4997 H   0  0  0  0  0
    6.8836   -7.3898   10.2617 H   0  0  0  0  0
    4.7772   -7.9991    9.0568 H   0  0  0  0  0
    3.1827   -9.6126   10.0951 H   0  0  0  0  0
    3.6821  -10.6074   12.3125 H   0  0  0  0  0
    5.3164  -11.1543   14.0084 H   0  0  0  0  0
    6.9213  -10.3375   14.0540 H   0  0  0  0  0
    5.8644   -8.3609   15.1809 H   0  0  0  0  0
    5.9996  -10.9015   16.5857 H   0  0  0  0  0
    6.4461   -7.2011   19.1593 H   0  0  0  0  0
    7.1516   -7.4400   17.5956 H   0  0  0  0  0
  1  2  4  0  0  0
  1  6  4  0  0  0
  1  7  1  0  0  0
  2  3  4  0  0  0
  3  4  4  0  0  0
  4  5  4  0  0  0
  5  6  4  0  0  0
  7  8  1  0  0  0
  8  9  1  0  0  0
  8 12  1  0  0  0
  9 10  1  0  0  0
  9 11  2  0  0  0
 12 13  1  0  0  0
 13 14  1  0  0  0
 13 15  2  0  0  0
 13 16  2  0  0  0
  2 17  1  0  0  0
  3 18  1  0  0  0
  4 19  1  0  0  0
  5 20  1  0  0  0
  6 21  1  0  0  0
  7 22  1  0  0  0
  7 23  1  0  0  0
  8 24  1  0  0  0
 12 25  1  0  0  0
 14 26  1  0  0  0
 14 27  1  0  0  0
M  END
$$$$
