### 
### Created by X-TOOL on Tue Oct 25 00:08:56 2005
### 

@<TRIPOS>MOLECULE
1iy7_ligand
   27    27     1     0     0
SMALL
GAST_HUCK


@<TRIPOS>ATOM
      1 C1          5.5640   -9.5750   12.5890 C.ar      1 SUB1       -0.038
      2 C2          6.4700   -8.6550   11.9840 C.ar      1 SUB1       -0.060
      3 C3          6.1860   -8.0880   10.7100 C.ar      1 SUB1       -0.069
      4 C4          4.9950   -8.4330   10.0260 C.ar      1 SUB1       -0.069
      5 C5          4.0960   -9.3430   10.6130 C.ar      1 SUB1       -0.069
      6 C6          4.3830   -9.9050   11.8760 C.ar      1 SUB1       -0.060
      7 C12         5.8360  -10.1860   13.9590 C.3       1 SUB1        0.012
      8 C13         5.3710   -9.3430   15.2250 C.3       1 SUB1        0.088
      9 C14         3.8240   -9.1650   15.2020 C.2       1 SUB1        0.051
     10 O15         3.4260   -7.9600   14.7460 O.co2     1 SUB1       -0.564
     11 O16         3.0340   -9.9880   15.5480 O.co2     1 SUB1       -0.564
     12 N17         5.6840   -9.9530   16.5590 N.am      1 SUB1       -0.217
     13 S18         5.5240   -9.0860   18.0720 S.o2      1 SUB1        0.116
     14 N19         6.5090   -7.7220   18.3080 N.am      1 SUB1       -0.249
     15 O20         5.9080   -9.9330   19.1610 O.2       1 SUB1       -0.135
     16 O21         4.2640   -8.4050   18.0460 O.2       1 SUB1       -0.135
     17 H21         7.3844   -8.3848   12.4997 H         1 SUB1        0.056
     18 H31         6.8836   -7.3898   10.2617 H         1 SUB1        0.060
     19 H41         4.7772   -7.9991    9.0568 H         1 SUB1        0.056
     20 H51         3.1827   -9.6126   10.0951 H         1 SUB1        0.060
     21 H61         3.6821  -10.6074   12.3125 H         1 SUB1        0.056
     22 H71         5.3164  -11.1543   14.0084 H         1 SUB1        0.048
     23 H72         6.9213  -10.3375   14.0540 H         1 SUB1        0.048
     24 H81         5.8644   -8.3609   15.1809 H         1 SUB1        0.075
     25 H121        5.9996  -10.9015   16.5857 H         1 SUB1        0.173
     26 H141        6.4461   -7.2011   19.1593 H         1 SUB1        0.165
     27 H142        7.1516   -7.4400   17.5956 H         1 SUB1        0.165
@<TRIPOS>BOND
     1    1    2 ar 
     2    1    6 ar 
     3    1    7 1  
     4    2    3 ar 
     5    3    4 ar 
     6    4    5 ar 
     7    5    6 ar 
     8    7    8 1  
     9    8    9 1  
    10    8   12 1  
    11    9   10 2  
    12    9   11 2  
    13   12   13 1  
    14   13   14 1  
    15   13   15 2  
    16   13   16 2  
    17    2   17 1  
    18    3   18 1  
    19    4   19 1  
    20    5   20 1  
    21    6   21 1  
    22    7   22 1  
    23    7   23 1  
    24    8   24 1  
    25   12   25 1  
    26   14   26 1  
    27   14   27 1  
@<TRIPOS>SUBSTRUCTURE
     1 SUB1        1 GROUP

