### 
### Created by X-TOOL on Mon Oct 24 22:55:26 2005
### 

@<TRIPOS>MOLECULE
1k21_ligand
   70    71     1     0     0
SMALL
GAST_HUCK


@<TRIPOS>ATOM
      1 H421       16.2561   -9.6774   20.7074 H         1 SUB1        0.185
      2 H431       13.7131  -10.8458   19.6648 H         1 SUB1        0.052
      3 H432       14.1806   -9.1134   19.5802 H         1 SUB1        0.052
      4 H441       13.6091   -8.7040   21.7867 H         1 SUB1        0.030
      5 H442       13.9470  -10.3908   22.3036 H         1 SUB1        0.030
      6 H451       11.7921  -10.4571   20.4059 H         1 SUB1        0.050
      7 H452       11.4293   -9.1783   21.6142 H         1 SUB1        0.050
      8 H461       11.7781  -12.1036   22.1276 H         1 SUB1        0.198
      9 H481       10.2522  -11.7578   25.3622 H         1 SUB1        0.194
     10 H482       10.8765  -12.8759   24.1201 H         1 SUB1        0.194
     11 H491       11.0059   -8.8400   23.4745 H         1 SUB1        0.194
     12 H492       10.3209   -9.4716   24.9959 H         1 SUB1        0.194
     13 H511       18.0242  -11.1126   21.2236 H         1 SUB1        0.080
     14 H521       18.3836  -10.5347   18.9070 H         1 SUB1        0.031
     15 H522       17.9101  -12.1750   18.3484 H         1 SUB1        0.031
     16 H531       20.4126  -11.5193   19.9968 H         1 SUB1        0.027
     17 H532       20.3783  -11.7996   18.2229 H         1 SUB1        0.027
     18 H541       20.9721  -13.7849   19.8953 H         1 SUB1        0.029
     19 H542       19.9581  -14.0802   18.4423 H         1 SUB1        0.029
     20 H551       19.3883  -14.8136   21.0803 H         1 SUB1        0.052
     21 H552       18.2640  -14.8316   19.6795 H         1 SUB1        0.052
     22 H581       18.3491  -15.6045   22.3925 H         1 SUB1        0.110
     23 H591       17.6392  -15.9576   24.9261 H         1 SUB1        0.035
     24 H592       17.3391  -14.1865   24.9184 H         1 SUB1        0.035
     25 H601       20.2161  -13.9909   22.8669 H         1 SUB1        0.027
     26 H602       20.2820  -15.7781   23.0345 H         1 SUB1        0.027
     27 H611       19.7462  -15.5394   25.5009 H         1 SUB1        0.030
     28 H621       19.0630  -13.2938   26.4047 H         1 SUB1        0.027
     29 H622       19.5005  -12.5493   24.8296 H         1 SUB1        0.027
     30 H631       21.4355  -14.0821   26.6927 H         1 SUB1        0.026
     31 H632       21.3703  -12.2983   26.4914 H         1 SUB1        0.026
     32 H641       23.2057  -13.3143   25.0898 H         1 SUB1        0.026
     33 H642       21.9519  -12.5382   24.0639 H         1 SUB1        0.026
     34 H651       22.1570  -15.5564   24.6935 H         1 SUB1        0.026
     35 H652       22.5861  -14.7766   23.1332 H         1 SUB1        0.026
     36 H661       15.5788  -15.2545   23.2884 H         1 SUB1        0.206
     37 H662       16.4137  -16.6703   23.3766 H         1 SUB1        0.206
     38 H671       16.2719  -17.0770   21.1129 H         1 SUB1        0.103
     39 H672       15.6296  -15.4201   20.8508 H         1 SUB1        0.103
     40 C1         16.1560  -11.6220   20.2070 C.2       1 SUB1        0.202
     41 O2         15.4510  -12.5640   19.8270 O.2       1 SUB1       -0.394
     42 N3         15.6340  -10.3970   20.3990 N.am      1 SUB1       -0.285
     43 C4         14.2220  -10.0260   20.1930 C.3       1 SUB1        0.032
     44 C5         13.4950   -9.7650   21.5200 C.3       1 SUB1       -0.014
     45 C6         12.0090  -10.0930   21.4210 C.3       1 SUB1        0.053
     46 N7         11.6090  -11.1220   22.3900 N.pl3     1 SUB1       -0.170
     47 C8         11.0030  -10.8830   23.6710 C.cat     1 SUB1        0.387
     48 N9         10.6870  -11.9160   24.4420 N.pl3     1 SUB1       -0.183
     49 N10        10.7580   -9.6370   24.0780 N.pl3     1 SUB1       -0.183
     50 N11        17.9500  -13.2540   21.0630 N.am      1 SUB1       -0.247
     51 C12        17.6790  -11.8530   20.4870 C.3       1 SUB1        0.134
     52 C13        18.4230  -11.6090   19.1400 C.3       1 SUB1       -0.012
     53 C14        19.8990  -12.0490   19.1810 C.3       1 SUB1       -0.047
     54 C15        20.0010  -13.5800   19.4210 C.3       1 SUB1       -0.032
     55 C16        18.8870  -14.1930   20.3230 C.3       1 SUB1        0.037
     56 O31        16.5740  -12.9000   22.8600 O.2       1 SUB1       -0.391
     57 C32        17.3450  -13.6610   22.2510 C.2       1 SUB1        0.229
     58 C33        17.5520  -15.0700   22.9300 C.3       1 SUB1        0.069
     59 C34        17.9260  -15.0000   24.4670 C.3       1 SUB1        0.011
     60 C51        20.4370  -14.8210   23.5540 C.3       1 SUB1       -0.050
     61 C52        19.4520  -14.7400   24.8050 C.3       1 SUB1       -0.034
     62 C53        19.7200  -13.3720   25.5260 C.3       1 SUB1       -0.050
     63 C54        21.2120  -13.2650   25.9910 C.3       1 SUB1       -0.053
     64 C55        22.1600  -13.3700   24.7530 C.3       1 SUB1       -0.053
     65 C56        21.9280  -14.7230   24.0130 C.3       1 SUB1       -0.053
     66 N21        16.2730  -15.8300   22.8380 N.4       1 SUB1        0.263
     67 C22        15.6600  -16.2720   21.5460 C.3       1 SUB1        0.008
     68 C23        14.2430  -16.7860   21.7690 C.2       1 SUB1        0.073
     69 O24        13.8040  -16.9480   22.9320 O.co2     1 SUB1       -0.562
     70 O25        13.5190  -17.0470   20.7800 O.co2     1 SUB1       -0.562
@<TRIPOS>BOND
     1   42    1 1  
     2   43    2 1  
     3   43    3 1  
     4   44    4 1  
     5   44    5 1  
     6   45    6 1  
     7   45    7 1  
     8   46    8 1  
     9   48    9 1  
    10   48   10 1  
    11   49   11 1  
    12   49   12 1  
    13   51   13 1  
    14   52   14 1  
    15   52   15 1  
    16   53   16 1  
    17   53   17 1  
    18   54   18 1  
    19   54   19 1  
    20   55   20 1  
    21   55   21 1  
    22   58   22 1  
    23   59   23 1  
    24   59   24 1  
    25   60   25 1  
    26   60   26 1  
    27   61   27 1  
    28   62   28 1  
    29   62   29 1  
    30   63   30 1  
    31   63   31 1  
    32   64   32 1  
    33   64   33 1  
    34   65   34 1  
    35   65   35 1  
    36   66   36 1  
    37   66   37 1  
    38   67   38 1  
    39   67   39 1  
    40   51   40 1  
    41   40   42 am 
    42   40   41 2  
    43   42   43 1  
    44   43   44 1  
    45   44   45 1  
    46   45   46 1  
    47   46   47 1  
    48   47   49 1  
    49   47   48 1  
    50   50   51 1  
    51   51   52 1  
    52   52   53 1  
    53   54   53 1  
    54   55   54 1  
    55   50   55 1  
    56   57   50 am 
    57   58   57 1  
    58   57   56 2  
    59   66   58 1  
    60   58   59 1  
    61   59   61 1  
    62   61   60 1  
    63   61   62 1  
    64   62   63 1  
    65   63   64 1  
    66   65   64 1  
    67   60   65 1  
    68   66   67 1  
    69   67   68 1  
    70   68   70 2  
    71   68   69 2  
@<TRIPOS>SUBSTRUCTURE
     1 SUB1        1 GROUP

