1k21_ligand
  -I-interpret- 

 70 71  0  0  0  0  0  0  0  0999 V2000
   16.2561   -9.6774   20.7074 H   0  0  0  0  0
   13.7131  -10.8458   19.6648 H   0  0  0  0  0
   14.1806   -9.1134   19.5802 H   0  0  0  0  0
   13.6091   -8.7040   21.7867 H   0  0  0  0  0
   13.9470  -10.3908   22.3036 H   0  0  0  0  0
   11.7921  -10.4571   20.4059 H   0  0  0  0  0
   11.4293   -9.1783   21.6142 H   0  0  0  0  0
   11.7781  -12.1036   22.1276 H   0  0  0  0  0
   10.2522  -11.7578   25.3622 H   0  0  0  0  0
   10.8765  -12.8759   24.1201 H   0  0  0  0  0
   11.0059   -8.8400   23.4745 H   0  0  0  0  0
   10.3209   -9.4716   24.9959 H   0  0  0  0  0
   18.0242  -11.1126   21.2236 H   0  0  0  0  0
   18.3836  -10.5347   18.9070 H   0  0  0  0  0
   17.9101  -12.1750   18.3484 H   0  0  0  0  0
   20.4126  -11.5193   19.9968 H   0  0  0  0  0
   20.3783  -11.7996   18.2229 H   0  0  0  0  0
   20.9721  -13.7849   19.8953 H   0  0  0  0  0
   19.9581  -14.0802   18.4423 H   0  0  0  0  0
   19.3883  -14.8136   21.0803 H   0  0  0  0  0
   18.2640  -14.8316   19.6795 H   0  0  0  0  0
   18.3491  -15.6045   22.3925 H   0  0  0  0  0
   17.6392  -15.9576   24.9261 H   0  0  0  0  0
   17.3391  -14.1865   24.9184 H   0  0  0  0  0
   20.2161  -13.9909   22.8669 H   0  0  0  0  0
   20.2820  -15.7781   23.0345 H   0  0  0  0  0
   19.7462  -15.5394   25.5009 H   0  0  0  0  0
   19.0630  -13.2938   26.4047 H   0  0  0  0  0
   19.5005  -12.5493   24.8296 H   0  0  0  0  0
   21.4355  -14.0821   26.6927 H   0  0  0  0  0
   21.3703  -12.2983   26.4914 H   0  0  0  0  0
   23.2057  -13.3143   25.0898 H   0  0  0  0  0
   21.9519  -12.5382   24.0639 H   0  0  0  0  0
   22.1570  -15.5564   24.6935 H   0  0  0  0  0
   22.5861  -14.7766   23.1332 H   0  0  0  0  0
   15.5788  -15.2545   23.2884 H   0  0  0  0  0
   16.4137  -16.6703   23.3766 H   0  0  0  0  0
   16.2719  -17.0770   21.1129 H   0  0  0  0  0
   15.6296  -15.4201   20.8508 H   0  0  0  0  0
   16.1560  -11.6220   20.2070 C   0  0  0  0  0
   15.4510  -12.5640   19.8270 O   0  0  0  0  0
   15.6340  -10.3970   20.3990 N   0  0  0  0  0
   14.2220  -10.0260   20.1930 C   0  0  0  0  0
   13.4950   -9.7650   21.5200 C   0  0  0  0  0
   12.0090  -10.0930   21.4210 C   0  0  0  0  0
   11.6090  -11.1220   22.3900 N   0  0  0  0  0
   11.0030  -10.8830   23.6710 C   0  3  0  0  0
   10.6870  -11.9160   24.4420 N   0  0  0  0  0
   10.7580   -9.6370   24.0780 N   0  0  0  0  0
   17.9500  -13.2540   21.0630 N   0  0  0  0  0
   17.6790  -11.8530   20.4870 C   0  0  0  0  0
   18.4230  -11.6090   19.1400 C   0  0  0  0  0
   19.8990  -12.0490   19.1810 C   0  0  0  0  0
   20.0010  -13.5800   19.4210 C   0  0  0  0  0
   18.8870  -14.1930   20.3230 C   0  0  0  0  0
   16.5740  -12.9000   22.8600 O   0  0  0  0  0
   17.3450  -13.6610   22.2510 C   0  0  0  0  0
   17.5520  -15.0700   22.9300 C   0  0  0  0  0
   17.9260  -15.0000   24.4670 C   0  0  0  0  0
   20.4370  -14.8210   23.5540 C   0  0  0  0  0
   19.4520  -14.7400   24.8050 C   0  0  0  0  0
   19.7200  -13.3720   25.5260 C   0  0  0  0  0
   21.2120  -13.2650   25.9910 C   0  0  0  0  0
   22.1600  -13.3700   24.7530 C   0  0  0  0  0
   21.9280  -14.7230   24.0130 C   0  0  0  0  0
   16.2730  -15.8300   22.8380 N   0  3  0  0  0
   15.6600  -16.2720   21.5460 C   0  0  0  0  0
   14.2430  -16.7860   21.7690 C   0  0  0  0  0
   13.8040  -16.9480   22.9320 O   0  5  0  0  0
   13.5190  -17.0470   20.7800 O   0  0  0  0  0
 42  1  1  0  0  0
 43  2  1  0  0  0
 43  3  1  0  0  0
 44  4  1  0  0  0
 44  5  1  0  0  0
 45  6  1  0  0  0
 45  7  1  0  0  0
 46  8  1  0  0  0
 48  9  1  0  0  0
 48 10  1  0  0  0
 49 11  1  0  0  0
 49 12  1  0  0  0
 51 13  1  0  0  0
 52 14  1  0  0  0
 52 15  1  0  0  0
 53 16  1  0  0  0
 53 17  1  0  0  0
 54 18  1  0  0  0
 54 19  1  0  0  0
 55 20  1  0  0  0
 55 21  1  0  0  0
 58 22  1  0  0  0
 59 23  1  0  0  0
 59 24  1  0  0  0
 60 25  1  0  0  0
 60 26  1  0  0  0
 61 27  1  0  0  0
 62 28  1  0  0  0
 62 29  1  0  0  0
 63 30  1  0  0  0
 63 31  1  0  0  0
 64 32  1  0  0  0
 64 33  1  0  0  0
 65 34  1  0  0  0
 65 35  1  0  0  0
 66 36  1  0  0  0
 66 37  1  0  0  0
 67 38  1  0  0  0
 67 39  1  0  0  0
 51 40  1  0  0  0
 40 42  1  0  0  0
 40 41  2  0  0  0
 42 43  1  0  0  0
 43 44  1  0  0  0
 44 45  1  0  0  0
 45 46  1  0  0  0
 46 47  1  0  0  0
 47 49  1  0  0  0
 47 48  1  0  0  0
 50 51  1  0  0  0
 51 52  1  0  0  0
 52 53  1  0  0  0
 54 53  1  0  0  0
 55 54  1  0  0  0
 50 55  1  0  0  0
 57 50  1  0  0  0
 58 57  1  0  0  0
 57 56  2  0  0  0
 66 58  1  0  0  0
 58 59  1  0  0  0
 59 61  1  0  0  0
 61 60  1  0  0  0
 61 62  1  0  0  0
 62 63  1  0  0  0
 63 64  1  0  0  0
 65 64  1  0  0  0
 60 65  1  0  0  0
 66 67  1  0  0  0
 67 68  1  0  0  0
 68 70  2  0  0  0
 68 69  1  0  0  0
M  END
$$$$
