### 
### Created by X-TOOL on Mon Oct 24 22:50:43 2005
### 

@<TRIPOS>MOLECULE
1s38_ligand
   22    23     1     0     0
SMALL
GAST_HUCK


@<TRIPOS>ATOM
      1 C1         17.1110   16.7670   18.7770 C.ar      1 SUB1       -0.067
      2 C2         16.0680   16.4780   19.7180 C.ar      1 SUB1       -0.039
      3 C9         14.6910   15.9090   19.2960 C.3       1 SUB1       -0.034
      4 C3         16.3090   16.7310   21.1290 C.ar      1 SUB1        0.007
      5 N3         15.3370   16.4740   22.0920 N.2       1 SUB1       -0.308
      6 C8         15.5140   16.6900   23.3800 C.2       1 SUB1        0.230
      7 N2         14.5310   16.4170   24.2140 N.pl3     1 SUB1       -0.281
      8 N1         16.6740   17.1860   23.8600 N.am      1 SUB1       -0.179
      9 C7         17.7200   17.4890   23.0730 C.2       1 SUB1        0.232
     10 O1         18.7830   17.9410   23.4930 O.2       1 SUB1       -0.387
     11 C4         17.5900   17.2630   21.5480 C.ar      1 SUB1        0.050
     12 C5         18.6150   17.5430   20.5890 C.ar      1 SUB1       -0.059
     13 C6         18.3790   17.2950   19.1960 C.ar      1 SUB1       -0.074
     14 H11        16.9378   16.5822   17.7230 H         1 SUB1        0.056
     15 H31        14.6685   15.7752   18.2044 H         1 SUB1        0.038
     16 H32        13.8974   16.6091   19.5960 H         1 SUB1        0.038
     17 H33        14.5290   14.9385   19.7877 H         1 SUB1        0.038
     18 H71        13.6424   16.0383   23.8564 H         1 SUB1        0.190
     19 H72        14.6512   16.5824   25.2235 H         1 SUB1        0.190
     20 H81        16.7587   17.3346   24.8453 H         1 SUB1        0.251
     21 H121       19.5687   17.9421   20.9151 H         1 SUB1        0.058
     22 H131       19.1518   17.5045   18.4653 H         1 SUB1        0.052
@<TRIPOS>BOND
     1    1    2 ar 
     2    1   13 ar 
     3    2    3 1  
     4    2    4 ar 
     5    4    5 1  
     6    4   11 ar 
     7    5    6 2  
     8    6    7 1  
     9    6    8 am 
    10    8    9 am 
    11    9   10 2  
    12    9   11 1  
    13   11   12 ar 
    14   12   13 ar 
    15    1   14 1  
    16    3   15 1  
    17    3   16 1  
    18    3   17 1  
    19    7   18 1  
    20    7   19 1  
    21    8   20 1  
    22   12   21 1  
    23   13   22 1  
@<TRIPOS>SUBSTRUCTURE
     1 SUB1        1 GROUP

