1hqg_ligand
  -I-interpret- 

 22 21  0  0  0  0  0  0  0  0999 V2000
   38.3360   21.3750   -6.6450 N   0  3  0  0  0
   38.3270   21.1860   -8.1300 C   0  0  0  0  0
   37.1650   21.9990   -8.7040 C   0  0  0  0  0
   37.1180   23.4270   -8.2780 C   0  0  0  0  0
   36.0610   24.2230   -8.9920 C   0  0  0  0  0
   36.0380   25.6340   -8.5570 N   0  3  0  0  0
   39.6380   21.7130   -8.7660 C   0  0  0  0  0
   40.5320   22.2300   -7.9660 O   0  0  0  0  0
   39.8790   21.6530  -10.0680 O   0  5  0  0  0
   37.4743   21.0249   -6.2565 H   0  0  0  0  0
   38.4266   22.3560   -6.4317 H   0  0  0  0  0
   39.1131   20.8713   -6.2469 H   0  0  0  0  0
   38.2016   20.1193   -8.3676 H   0  0  0  0  0
   36.2262   21.5192   -8.3902 H   0  0  0  0  0
   37.2410   21.9735   -9.8011 H   0  0  0  0  0
   38.0973   23.8849   -8.4809 H   0  0  0  0  0
   36.9130   23.4632   -7.1979 H   0  0  0  0  0
   35.0787   23.7727   -8.7864 H   0  0  0  0  0
   36.2611   24.1886  -10.0731 H   0  0  0  0  0
   35.3175   26.1287   -9.0592 H   0  0  0  0  0
   36.9321   26.0588   -8.7470 H   0  0  0  0  0
   35.8486   25.6777   -7.5679 H   0  0  0  0  0
  1  2  1  0  0  0
  2  3  1  0  0  0
  2  7  1  0  0  0
  3  4  1  0  0  0
  4  5  1  0  0  0
  5  6  1  0  0  0
  7  8  2  0  0  0
  7  9  1  0  0  0
  1 10  1  0  0  0
  1 11  1  0  0  0
  1 12  1  0  0  0
  2 13  1  0  0  0
  3 14  1  0  0  0
  3 15  1  0  0  0
  4 16  1  0  0  0
  4 17  1  0  0  0
  5 18  1  0  0  0
  5 19  1  0  0  0
  6 20  1  0  0  0
  6 21  1  0  0  0
  6 22  1  0  0  0
M  END
$$$$
