### 
### Created by X-TOOL on Tue Oct 25 00:06:37 2005
### 

@<TRIPOS>MOLECULE
1ogx_ligand
   38    41     1     0     0
SMALL
GAST_HUCK


@<TRIPOS>ATOM
      1 C1         13.0500  -41.7260  -15.9310 C.ar      1 SUB1        0.085
      2 C2         13.1500  -42.7880  -16.7980 C.ar      1 SUB1       -0.035
      3 C3         13.2880  -44.0860  -16.2630 C.ar      1 SUB1       -0.039
      4 C4         13.3290  -44.3010  -14.8030 C.ar      1 SUB1       -0.026
      5 C5         13.2330  -43.1840  -13.9590 C.ar      1 SUB1       -0.061
      6 C6         13.0960  -41.9190  -14.5060 C.ar      1 SUB1       -0.032
      7 C10        13.3780  -45.1850  -17.1970 C.ar      1 SUB1       -0.072
      8 C11        13.5000  -46.5080  -16.6790 C.ar      1 SUB1       -0.070
      9 C12        13.5350  -46.7280  -15.2560 C.ar      1 SUB1       -0.042
     10 C13        13.4560  -45.6370  -14.3100 C.ar      1 SUB1       -0.037
     11 C16        13.6440  -48.1280  -14.7670 C.3       1 SUB1       -0.000
     12 C17        13.0080  -48.3130  -13.3610 C.3       1 SUB1        0.044
     13 C18        13.6260  -47.3300  -12.3510 C.3       1 SUB1       -0.032
     14 C19        13.4910  -45.8560  -12.8140 C.3       1 SUB1       -0.022
     15 C24        12.9060  -49.2430  -15.5570 C.3       1 SUB1       -0.027
     16 C25        13.2730  -50.4740  -14.6690 C.3       1 SUB1        0.025
     17 C26        13.3170  -49.7990  -13.2450 C.2       1 SUB1        0.135
     18 C27        11.4770  -48.1500  -13.3650 C.3       1 SUB1       -0.053
     19 O1         12.9080  -40.5500  -16.4790 O.3       1 SUB1       -0.334
     20 O26        13.5680  -50.3610  -12.2070 O.2       1 SUB1       -0.332
     21 H21        13.1234  -42.6314  -17.8703 H         1 SUB1        0.048
     22 H51        13.2659  -43.3108  -12.8829 H         1 SUB1        0.060
     23 H61        13.0222  -41.0597  -13.8493 H         1 SUB1        0.057
     24 H71        13.3532  -45.0071  -18.2711 H         1 SUB1        0.051
     25 H81        13.5669  -47.3543  -17.3611 H         1 SUB1        0.055
     26 H111       14.7149  -48.3779  -14.7412 H         1 SUB1        0.043
     27 H131       13.1124  -47.4352  -11.3840 H         1 SUB1        0.028
     28 H132       14.6959  -47.5572  -12.2341 H         1 SUB1        0.028
     29 H141       14.3509  -45.3051  -12.4053 H         1 SUB1        0.041
     30 H142       12.5566  -45.4635  -12.3865 H         1 SUB1        0.041
     31 H151       11.8184  -49.0813  -15.5868 H         1 SUB1        0.031
     32 H152       13.2964  -49.3565  -16.5791 H         1 SUB1        0.031
     33 H161       12.5017  -51.2571  -14.7119 H         1 SUB1        0.049
     34 H162       14.2524  -50.8972  -14.9366 H         1 SUB1        0.049
     35 H181       11.0436  -48.8557  -14.0890 H         1 SUB1        0.022
     36 H182       11.0738  -48.3696  -12.3654 H         1 SUB1        0.022
     37 H183       11.2097  -47.1247  -13.6603 H         1 SUB1        0.022
     38 H191       12.9022  -40.6411  -17.4247 H         1 SUB1        0.248
@<TRIPOS>BOND
     1    1    2 ar 
     2    1    6 ar 
     3    1   19 1  
     4    2    3 ar 
     5    3    4 ar 
     6    3    7 ar 
     7    4    5 ar 
     8    4   10 ar 
     9    5    6 ar 
    10    7    8 ar 
    11    8    9 ar 
    12    9   10 ar 
    13    9   11 1  
    14   10   14 1  
    15   11   12 1  
    16   11   15 1  
    17   12   13 1  
    18   12   17 1  
    19   12   18 1  
    20   13   14 1  
    21   15   16 1  
    22   16   17 1  
    23   17   20 2  
    24    2   21 1  
    25    5   22 1  
    26    6   23 1  
    27    7   24 1  
    28    8   25 1  
    29   11   26 1  
    30   13   27 1  
    31   13   28 1  
    32   14   29 1  
    33   14   30 1  
    34   15   31 1  
    35   15   32 1  
    36   16   33 1  
    37   16   34 1  
    38   18   35 1  
    39   18   36 1  
    40   18   37 1  
    41   19   38 1  
@<TRIPOS>SUBSTRUCTURE
     1 SUB1        1 GROUP

