1ogx_ligand
  -I-interpret- 

 38 41  0  0  0  0  0  0  0  0999 V2000
   13.0500  -41.7260  -15.9310 C   0  0  0  0  0
   13.1500  -42.7880  -16.7980 C   0  0  0  0  0
   13.2880  -44.0860  -16.2630 C   0  0  0  0  0
   13.3290  -44.3010  -14.8030 C   0  0  0  0  0
   13.2330  -43.1840  -13.9590 C   0  0  0  0  0
   13.0960  -41.9190  -14.5060 C   0  0  0  0  0
   13.3780  -45.1850  -17.1970 C   0  0  0  0  0
   13.5000  -46.5080  -16.6790 C   0  0  0  0  0
   13.5350  -46.7280  -15.2560 C   0  0  0  0  0
   13.4560  -45.6370  -14.3100 C   0  0  0  0  0
   13.6440  -48.1280  -14.7670 C   0  0  0  0  0
   13.0080  -48.3130  -13.3610 C   0  0  0  0  0
   13.6260  -47.3300  -12.3510 C   0  0  0  0  0
   13.4910  -45.8560  -12.8140 C   0  0  0  0  0
   12.9060  -49.2430  -15.5570 C   0  0  0  0  0
   13.2730  -50.4740  -14.6690 C   0  0  0  0  0
   13.3170  -49.7990  -13.2450 C   0  0  0  0  0
   11.4770  -48.1500  -13.3650 C   0  0  0  0  0
   12.9080  -40.5500  -16.4790 O   0  0  0  0  0
   13.5680  -50.3610  -12.2070 O   0  0  0  0  0
   13.1234  -42.6314  -17.8703 H   0  0  0  0  0
   13.2659  -43.3108  -12.8829 H   0  0  0  0  0
   13.0222  -41.0597  -13.8493 H   0  0  0  0  0
   13.3532  -45.0071  -18.2711 H   0  0  0  0  0
   13.5669  -47.3543  -17.3611 H   0  0  0  0  0
   14.7149  -48.3779  -14.7412 H   0  0  0  0  0
   13.1124  -47.4352  -11.3840 H   0  0  0  0  0
   14.6959  -47.5572  -12.2341 H   0  0  0  0  0
   14.3509  -45.3051  -12.4053 H   0  0  0  0  0
   12.5566  -45.4635  -12.3865 H   0  0  0  0  0
   11.8184  -49.0813  -15.5868 H   0  0  0  0  0
   13.2964  -49.3565  -16.5791 H   0  0  0  0  0
   12.5017  -51.2571  -14.7119 H   0  0  0  0  0
   14.2524  -50.8972  -14.9366 H   0  0  0  0  0
   11.0436  -48.8557  -14.0890 H   0  0  0  0  0
   11.0738  -48.3696  -12.3654 H   0  0  0  0  0
   11.2097  -47.1247  -13.6603 H   0  0  0  0  0
   12.9022  -40.6411  -17.4247 H   0  0  0  0  0
  1  2  4  0  0  0
  1  6  4  0  0  0
  1 19  1  0  0  0
  2  3  4  0  0  0
  3  4  4  0  0  0
  3  7  4  0  0  0
  4  5  4  0  0  0
  4 10  4  0  0  0
  5  6  4  0  0  0
  7  8  4  0  0  0
  8  9  4  0  0  0
  9 10  4  0  0  0
  9 11  1  0  0  0
 10 14  1  0  0  0
 11 12  1  0  0  0
 11 15  1  0  0  0
 12 13  1  0  0  0
 12 17  1  0  0  0
 12 18  1  0  0  0
 13 14  1  0  0  0
 15 16  1  0  0  0
 16 17  1  0  0  0
 17 20  2  0  0  0
  2 21  1  0  0  0
  5 22  1  0  0  0
  6 23  1  0  0  0
  7 24  1  0  0  0
  8 25  1  0  0  0
 11 26  1  0  0  0
 13 27  1  0  0  0
 13 28  1  0  0  0
 14 29  1  0  0  0
 14 30  1  0  0  0
 15 31  1  0  0  0
 15 32  1  0  0  0
 16 33  1  0  0  0
 16 34  1  0  0  0
 18 35  1  0  0  0
 18 36  1  0  0  0
 18 37  1  0  0  0
 19 38  1  0  0  0
M  END
$$$$
