1nw4_ligand
  -I-interpret- 

 33 35  0  0  0  0  0  0  0  0999 V2000
    7.4180    1.1570   94.6480 O   0  0  0  0  0
    8.6520    1.3670   93.9700 C   0  0  0  0  0
    8.3860    1.3530   92.5090 C   0  0  0  0  0
    7.4440    2.3560   92.1400 N   0  0  0  0  0
    9.6400    1.6000   91.7260 C   0  0  0  0  0
    9.5810    0.7130   90.6020 O   0  0  0  0  0
    9.5160    3.0410   91.3480 C   0  0  0  0  0
    9.9980    3.2540   90.0160 O   0  0  0  0  0
    8.0360    3.4550   91.4630 C   0  0  0  0  0
    7.8230    4.6840   92.3660 C   0  0  0  0  0
    6.5780    5.1940   92.7270 C   0  0  0  0  0
    6.6120    6.2500   93.5050 N   0  0  0  0  0
    7.9650    6.4990   93.7090 C   0  0  0  0  0
    8.6010    7.5390   94.4790 C   0  0  0  0  0
    8.0430    8.4320   95.1270 O   0  0  0  0  0
   10.0110    7.4730   94.4520 N   0  0  0  0  0
   10.7440    6.5040   93.7530 C   0  0  0  0  0
   10.1430    5.5140   93.0180 N   0  0  0  0  0
    8.7460    5.5570   93.0250 C   0  0  0  0  0
    7.5684    1.1627   95.5860 H   0  0  0  0  0
    9.3597    0.5652   94.2274 H   0  0  0  0  0
    9.0768    2.3387   94.2620 H   0  0  0  0  0
    7.9827    0.3655   92.2404 H   0  0  0  0  0
    6.9637    2.7223   93.0353 H   0  0  0  0  0
   10.5518    1.4199   92.3143 H   0  0  0  0  0
   10.3578    0.8288   90.0676 H   0  0  0  0  0
   10.1150    3.6488   92.0421 H   0  0  0  0  0
    9.4887    2.7303   89.4086 H   0  0  0  0  0
    7.5943    3.6255   90.4701 H   0  0  0  0  0
    5.6439    4.7484   92.3880 H   0  0  0  0  0
    5.8123    6.7785   93.8819 H   0  0  0  0  0
   10.5206    8.1633   94.9656 H   0  0  0  0  0
   11.8316    6.5385   93.7951 H   0  0  0  0  0
  1  2  1  0  0  0
  2  3  1  0  0  0
  3  4  1  0  0  0
  3  5  1  0  0  0
  4  9  1  0  0  0
  5  6  1  0  0  0
  5  7  1  0  0  0
  7  8  1  0  0  0
  7  9  1  0  0  0
  9 10  1  0  0  0
 10 11  2  0  0  0
 10 19  1  0  0  0
 11 12  1  0  0  0
 12 13  1  0  0  0
 13 14  1  0  0  0
 13 19  2  0  0  0
 14 15  2  0  0  0
 14 16  1  0  0  0
 16 17  1  0  0  0
 17 18  2  0  0  0
 18 19  1  0  0  0
  1 20  1  0  0  0
  2 21  1  0  0  0
  2 22  1  0  0  0
  3 23  1  0  0  0
  4 24  1  0  0  0
  5 25  1  0  0  0
  6 26  1  0  0  0
  7 27  1  0  0  0
  8 28  1  0  0  0
  9 29  1  0  0  0
 11 30  1  0  0  0
 12 31  1  0  0  0
 16 32  1  0  0  0
 17 33  1  0  0  0
M  END
$$$$
