### 
### Created by X-TOOL on Tue Oct 25 01:38:54 2005
### 

@<TRIPOS>MOLECULE
1nw4_ligand
   33    35     1     0     0
SMALL
GAST_HUCK


@<TRIPOS>ATOM
      1 UNK_1       7.4180    1.1570   94.6480 O.3       1 SUB1       -0.393
      2 UNK_2       8.6520    1.3670   93.9700 C.3       1 SUB1        0.062
      3 UNK_3       8.3860    1.3530   92.5090 C.3       1 SUB1        0.061
      4 UNK_4       7.4440    2.3560   92.1400 N.3       1 SUB1       -0.298
      5 UNK_5       9.6400    1.6000   91.7260 C.3       1 SUB1        0.101
      6 UNK_6       9.5810    0.7130   90.6020 O.3       1 SUB1       -0.387
      7 UNK_7       9.5160    3.0410   91.3480 C.3       1 SUB1        0.102
      8 UNK_8       9.9980    3.2540   90.0160 O.3       1 SUB1       -0.386
      9 UNK_9       8.0360    3.4550   91.4630 C.3       1 SUB1        0.053
     10 C9          7.8230    4.6840   92.3660 C.2       1 SUB1       -0.025
     11 C8          6.5780    5.1940   92.7270 C.2       1 SUB1        0.019
     12 N7          6.6120    6.2500   93.5050 N.pl3     1 SUB1       -0.290
     13 C5          7.9650    6.4990   93.7090 C.2       1 SUB1        0.135
     14 C6          8.6010    7.5390   94.4790 C.2       1 SUB1        0.241
     15 O6          8.0430    8.4320   95.1270 O.2       1 SUB1       -0.401
     16 N1         10.0110    7.4730   94.4520 N.am      1 SUB1       -0.207
     17 C2         10.7440    6.5040   93.7530 C.2       1 SUB1        0.115
     18 N3         10.1430    5.5140   93.0180 N.2       1 SUB1       -0.320
     19 C4          8.7460    5.5570   93.0250 C.2       1 SUB1        0.015
     20 H11         7.5684    1.1627   95.5860 H         1 SUB1        0.209
     21 H21         9.3597    0.5652   94.2274 H         1 SUB1        0.057
     22 H22         9.0768    2.3387   94.2620 H         1 SUB1        0.057
     23 H31         7.9827    0.3655   92.2404 H         1 SUB1        0.051
     24 H41         6.9637    2.7223   93.0353 H         1 SUB1        0.124
     25 H51        10.5518    1.4199   92.3143 H         1 SUB1        0.064
     26 H61        10.3578    0.8288   90.0676 H         1 SUB1        0.210
     27 H71        10.1150    3.6488   92.0421 H         1 SUB1        0.065
     28 H81         9.4887    2.7303   89.4086 H         1 SUB1        0.210
     29 H91         7.5943    3.6255   90.4701 H         1 SUB1        0.057
     30 H111        5.6439    4.7484   92.3880 H         1 SUB1        0.078
     31 H121        5.8123    6.7785   93.8819 H         1 SUB1        0.227
     32 H161       10.5206    8.1633   94.9656 H         1 SUB1        0.252
     33 H171       11.8316    6.5385   93.7951 H         1 SUB1        0.143
@<TRIPOS>BOND
     1    1    2 1  
     2    2    3 1  
     3    3    4 1  
     4    3    5 1  
     5    4    9 1  
     6    5    6 1  
     7    5    7 1  
     8    7    8 1  
     9    7    9 1  
    10    9   10 1  
    11   10   11 2  
    12   10   19 1  
    13   11   12 1  
    14   12   13 1  
    15   13   14 1  
    16   13   19 2  
    17   14   15 2  
    18   14   16 am 
    19   16   17 am 
    20   17   18 2  
    21   18   19 1  
    22    1   20 1  
    23    2   21 1  
    24    2   22 1  
    25    3   23 1  
    26    4   24 1  
    27    5   25 1  
    28    6   26 1  
    29    7   27 1  
    30    8   28 1  
    31    9   29 1  
    32   11   30 1  
    33   12   31 1  
    34   16   32 1  
    35   17   33 1  
@<TRIPOS>SUBSTRUCTURE
     1 SUB1        1 GROUP

