2aov_ligand
  -I-interpret- 

 27 28  0  0  0  0  0  0  0  0999 V2000
   43.5450  -32.7960   -5.1450 N   0  0  0  0  0
   43.7500  -31.8430   -4.1540 C   0  0  0  0  0
   43.3610  -32.1760   -2.8850 N   0  0  0  0  0
   42.7850  -33.3930   -2.5640 C   0  0  0  0  0
   42.5230  -34.4560   -3.5710 C   0  0  0  0  0
   42.9590  -34.0470   -4.8990 C   0  0  0  0  0
   41.8980  -35.7450   -3.2280 C   0  0  0  0  0
   40.4320  -35.7700   -3.0100 C   0  0  0  0  0
   39.7500  -37.0130   -2.6520 C   0  0  0  0  0
   40.5580  -38.3030   -2.4970 C   0  0  0  0  0
   42.0170  -38.2860   -2.7190 C   0  0  0  0  0
   42.6820  -37.0100   -3.0840 C   0  0  0  0  0
   44.3390  -30.5340   -4.4350 N   0  0  0  0  0
   42.4460  -33.5760   -1.1910 N   0  0  0  0  0
   42.8540  -34.8450   -6.1550 C   0  0  0  0  0
   39.8860  -39.7840   -2.0590 Cl  0  0  0  0  0
   38.0910  -36.8700   -2.4440 Cl  0  0  0  0  0
   39.8588  -34.8562   -3.1172 H   0  0  0  0  0
   42.5971  -39.1960   -2.6166 H   0  0  0  0  0
   43.7533  -36.9951   -3.2488 H   0  0  0  0  0
   44.6281  -30.2945   -5.3942 H   0  0  0  0  0
   44.4647  -29.8517   -3.6737 H   0  0  0  0  0
   42.0138  -34.4578   -0.8804 H   0  0  0  0  0
   42.6334  -32.8264   -0.5099 H   0  0  0  0  0
   42.3922  -35.8185   -5.9334 H   0  0  0  0  0
   43.8586  -35.0027   -6.5743 H   0  0  0  0  0
   42.2336  -34.3023   -6.8835 H   0  0  0  0  0
  1  2  4  0  0  0
  1  6  4  0  0  0
  2  3  4  0  0  0
  2 13  1  0  0  0
  3  4  4  0  0  0
  4  5  4  0  0  0
  4 14  1  0  0  0
  5  6  4  0  0  0
  5  7  1  0  0  0
  6 15  1  0  0  0
  7  8  4  0  0  0
  7 12  4  0  0  0
  8  9  4  0  0  0
  9 10  4  0  0  0
  9 17  1  0  0  0
 10 11  4  0  0  0
 10 16  1  0  0  0
 11 12  4  0  0  0
  8 18  1  0  0  0
 11 19  1  0  0  0
 12 20  1  0  0  0
 13 21  1  0  0  0
 13 22  1  0  0  0
 14 23  1  0  0  0
 14 24  1  0  0  0
 15 25  1  0  0  0
 15 26  1  0  0  0
 15 27  1  0  0  0
M  END
$$$$
