1c1r_ligand
  -I-interpret- 

 37 40  0  0  0  0  0  0  0  0999 V2000
   44.5221   18.0050   51.4511 H   0  0  0  0  0
   43.7592   19.7028   49.7603 H   0  0  0  0  0
   45.9908   21.2131   53.9856 H   0  0  0  0  0
   45.1280   25.5411   51.1820 H   0  0  0  0  0
   43.4037   25.2257   50.7896 H   0  0  0  0  0
   46.9073   18.2820   55.4803 H   0  0  0  0  0
   46.9594   19.9097   54.7519 H   0  0  0  0  0
   45.3210   19.4680   52.8680 C   0  0  0  0  0
   44.6780   19.0610   51.6400 C   0  0  0  0  0
   44.2480   20.0000   50.6810 C   0  0  0  0  0
   44.4900   21.3220   50.9910 C   0  0  0  0  0
   45.0860   21.7150   52.1250 C   0  0  0  0  0
   45.5140   20.8510   53.0820 C   0  0  0  0  0
   45.7430   18.5670   53.8490 C   0  3  0  0  0
   44.6170   23.4360   51.0080 C   0  0  0  0  0
   44.4420   24.9350   50.5720 C   0  0  0  0  0
   46.5960   18.9460   54.7570 N   0  0  0  0  0
   45.2890   17.3480   53.8450 N   0  0  0  0  0
   44.2090   22.4040   50.3170 N   0  0  0  0  0
   45.1560   23.0190   52.1120 N   0  0  0  0  0
   45.0370   25.3510   44.6310 C   0  0  0  0  0
   45.7720   26.5360   44.9400 C   0  0  0  0  0
   45.9600   26.9660   46.2830 C   0  0  0  0  0
   45.3900   26.1690   47.2600 C   0  0  0  0  0
   44.6910   25.0430   46.9460 C   0  0  0  0  0
   44.4740   24.5750   45.6580 C   0  0  0  0  0
   44.7250   25.2740   49.0560 C   0  0  0  0  0
   45.3960   26.2880   48.5740 N   0  0  0  0  0
   44.3040   24.5340   48.0680 N   0  0  0  0  0
   44.6144   17.0520   53.1251 H   0  0  0  0  0
   45.6041   16.6787   54.5617 H   0  0  0  0  0
   45.5664   23.6115   52.8478 H   0  0  0  0  0
   44.9128   25.0484   43.5975 H   0  0  0  0  0
   46.1965   27.1214   44.1324 H   0  0  0  0  0
   46.5163   27.8640   46.5263 H   0  0  0  0  0
   43.9086   23.6721   45.4577 H   0  0  0  0  0
   45.8449   27.0386   49.1181 H   0  0  0  0  0
  9  1  1  0  0  0
 10  2  1  0  0  0
 13  3  1  0  0  0
 16  4  1  0  0  0
 14  8  1  0  0  0
  8 13  4  0  0  0
  8  9  4  0  0  0
  9 10  4  0  0  0
 10 11  4  0  0  0
 11 19  1  0  0  0
 12 11  4  0  0  0
 12 20  1  0  0  0
 13 12  4  0  0  0
 20 15  1  0  0  0
 19 15  2  0  0  0
 15 16  1  0  0  0
 16  5  1  0  0  0
 17  6  1  0  0  0
 16 27  1  0  0  0
 27 29  2  0  0  0
 27 28  1  0  0  0
 17  7  1  0  0  0
 28 24  1  0  0  0
 24 25  4  0  0  0
 24 23  4  0  0  0
 23 22  4  0  0  0
 22 21  4  0  0  0
 26 21  4  0  0  0
 25 26  4  0  0  0
 29 25  1  0  0  0
 14 18  1  0  0  0
 14 17  1  0  0  0
 18 30  1  0  0  0
 18 31  1  0  0  0
 20 32  1  0  0  0
 21 33  1  0  0  0
 22 34  1  0  0  0
 23 35  1  0  0  0
 26 36  1  0  0  0
 28 37  1  0  0  0
M  END
$$$$
