### 
### Created by X-TOOL on Mon Oct 24 21:55:13 2005
### 

@<TRIPOS>MOLECULE
1c1r_ligand
   37    40     1     0     0
SMALL
GAST_HUCK


@<TRIPOS>ATOM
      1 H91        44.5221   18.0050   51.4511 H         1 SUB1        0.056
      2 H101       43.7592   19.7028   49.7603 H         1 SUB1        0.054
      3 H131       45.9908   21.2131   53.9856 H         1 SUB1        0.059
      4 H161       45.1280   25.5411   51.1820 H         1 SUB1        0.079
      5 H162       43.4037   25.2257   50.7896 H         1 SUB1        0.079
      6 H171       46.9073   18.2820   55.4803 H         1 SUB1        0.192
      7 H172       46.9594   19.9097   54.7519 H         1 SUB1        0.192
      8 C1         45.3210   19.4680   52.8680 C.ar      1 SUB1        0.172
      9 C2         44.6780   19.0610   51.6400 C.ar      1 SUB1       -0.024
     10 C3         44.2480   20.0000   50.6810 C.ar      1 SUB1       -0.061
     11 C4         44.4900   21.3220   50.9910 C.ar      1 SUB1        0.022
     12 C5         45.0860   21.7150   52.1250 C.ar      1 SUB1        0.083
     13 C6         45.5140   20.8510   53.0820 C.ar      1 SUB1        0.012
     14 C7         45.7430   18.5670   53.8490 C.cat     1 SUB1        0.310
     15 C8         44.6170   23.4360   51.0080 C.2       1 SUB1        0.141
     16 C9         44.4420   24.9350   50.5720 C.3       1 SUB1        0.111
     17 N1         46.5960   18.9460   54.7570 N.pl3     1 SUB1       -0.201
     18 N2         45.2890   17.3480   53.8450 N.pl3     1 SUB1       -0.201
     19 N3         44.2090   22.4040   50.3170 N.2       1 SUB1       -0.315
     20 N4         45.1560   23.0190   52.1120 N.pl3     1 SUB1       -0.244
     21 C1'        45.0370   25.3510   44.6310 C.ar      1 SUB1       -0.078
     22 C2'        45.7720   26.5360   44.9400 C.ar      1 SUB1       -0.076
     23 C3'        45.9600   26.9660   46.2830 C.ar      1 SUB1       -0.042
     24 C4'        45.3900   26.1690   47.2600 C.ar      1 SUB1        0.079
     25 C5'        44.6910   25.0430   46.9460 C.ar      1 SUB1        0.022
     26 C6'        44.4740   24.5750   45.6580 C.ar      1 SUB1       -0.065
     27 C8'        44.7250   25.2740   49.0560 C.2       1 SUB1        0.141
     28 N3'        45.3960   26.2880   48.5740 N.pl3     1 SUB1       -0.244
     29 N4'        44.3040   24.5340   48.0680 N.2       1 SUB1       -0.315
     30 H181       44.6144   17.0520   53.1251 H         1 SUB1        0.192
     31 H182       45.6041   16.6787   54.5617 H         1 SUB1        0.192
     32 H201       45.5664   23.6115   52.8478 H         1 SUB1        0.232
     33 H211       44.9128   25.0484   43.5975 H         1 SUB1        0.052
     34 H221       46.1965   27.1214   44.1324 H         1 SUB1        0.053
     35 H231       46.5163   27.8640   46.5263 H         1 SUB1        0.054
     36 H261       43.9086   23.6721   45.4577 H         1 SUB1        0.054
     37 H281       45.8449   27.0386   49.1181 H         1 SUB1        0.232
@<TRIPOS>BOND
     1    9    1 1  
     2   10    2 1  
     3   13    3 1  
     4   16    4 1  
     5   14    8 1  
     6    8   13 ar 
     7    8    9 ar 
     8    9   10 ar 
     9   10   11 ar 
    10   11   19 1  
    11   12   11 ar 
    12   12   20 1  
    13   13   12 ar 
    14   20   15 1  
    15   19   15 2  
    16   15   16 1  
    17   16    5 1  
    18   17    6 1  
    19   16   27 1  
    20   27   29 2  
    21   27   28 1  
    22   17    7 1  
    23   28   24 1  
    24   24   25 ar 
    25   24   23 ar 
    26   23   22 ar 
    27   22   21 ar 
    28   26   21 ar 
    29   25   26 ar 
    30   29   25 1  
    31   14   18 1  
    32   14   17 1  
    33   18   30 1  
    34   18   31 1  
    35   20   32 1  
    36   21   33 1  
    37   22   34 1  
    38   23   35 1  
    39   26   36 1  
    40   28   37 1  
@<TRIPOS>SUBSTRUCTURE
     1 SUB1        1 GROUP

