### 
### Created by X-TOOL on Mon Oct 24 22:40:32 2005
### 

@<TRIPOS>MOLECULE
1qka_ligand
   71    70     1     0     0
SMALL
GAST_HUCK


@<TRIPOS>ATOM
      1 N           6.8330   16.6540   15.2600 N.4       1 SUB1        0.238
      2 CA          6.4060   17.9620   14.6680 C.3       1 SUB1        0.065
      3 C           5.1830   18.4930   15.4130 C.2       1 SUB1        0.227
      4 O           4.4460   17.6900   16.0100 O.2       1 SUB1       -0.391
      5 CB          6.0750   17.8590   13.1660 C.3       1 SUB1        0.008
      6 CG          5.2490   16.6220   12.7870 C.3       1 SUB1       -0.041
      7 CD          5.2030   16.5520   11.2420 C.3       1 SUB1       -0.012
      8 CE          6.4910   15.8840   10.7430 C.3       1 SUB1       -0.035
      9 NZ          6.4390   14.4200   11.0120 N.4       1 SUB1        0.219
     10 N           5.0260   19.8010   15.4630 N.am      1 SUB1       -0.261
     11 CA          3.9390   20.4660   16.1150 C.3       1 SUB1        0.131
     12 C           2.5920   20.2950   15.3940 C.2       1 SUB1        0.205
     13 O           2.5030   20.5640   14.1820 O.2       1 SUB1       -0.394
     14 CB          4.1160   22.0070   16.1970 C.3       1 SUB1       -0.011
     15 CG          5.3820   22.4170   16.9860 C.3       1 SUB1       -0.030
     16 CD          5.2560   22.2330   18.5070 C.3       1 SUB1        0.051
     17 NE          6.5810   22.4550   19.0930 N.pl3     1 SUB1       -0.170
     18 CZ          7.1360   21.9310   20.1800 C.cat     1 SUB1        0.387
     19 NH1         6.4640   21.0970   20.9560 N.pl3     1 SUB1       -0.183
     20 NH2         8.4120   22.2230   20.4850 N.pl3     1 SUB1       -0.183
     21 N           1.5850   20.0240   16.2150 N.am      1 SUB1       -0.268
     22 CA          0.2130   19.9480   15.7330 C.3       1 SUB1        0.081
     23 C          -0.7760   20.5460   16.7500 C.2       1 SUB1        0.053
     24 O          -1.9930   20.3050   16.6110 O.co2     1 SUB1       -0.564
     25 CB         -0.2890   18.5670   15.3350 C.3       1 SUB1       -0.018
     26 CG         -1.3710   18.7780   14.2310 C.3       1 SUB1       -0.043
     27 CD         -1.9800   17.4510   13.8700 C.3       1 SUB1       -0.012
     28 CE         -3.0850   17.4940   12.8500 C.3       1 SUB1       -0.035
     29 NZ         -3.9270   18.7030   12.7750 N.4       1 SUB1        0.219
     30 OXT        -0.4090   21.3940   17.5910 O.co2     1 SUB1       -0.564
     31 H11         6.2584   16.4443   16.0612 H         1 SUB1        0.201
     32 H21         7.2330   18.6771   14.7892 H         1 SUB1        0.110
     33 H51         7.0210   17.8269   12.6057 H         1 SUB1        0.035
     34 H52         5.5071   18.7552   12.8756 H         1 SUB1        0.035
     35 H61         4.2294   16.7128   13.1897 H         1 SUB1        0.027
     36 H62         5.7231   15.7152   13.1905 H         1 SUB1        0.027
     37 H71         5.1280   17.5680   10.8272 H         1 SUB1        0.032
     38 H72         4.3317   15.9608   10.9237 H         1 SUB1        0.032
     39 H81         7.3547   16.3206   11.2659 H         1 SUB1        0.081
     40 H82         6.5940   16.0527    9.6609 H         1 SUB1        0.081
     41 H91         6.3553   14.2635   12.0042 H         1 SUB1        0.199
     42 H92         7.2834   13.9859   10.6735 H         1 SUB1        0.199
     43 H93         5.6431   14.0197   10.5404 H         1 SUB1        0.199
     44 H101        5.7154   20.3690   15.0134 H         1 SUB1        0.188
     45 H111        3.8628   20.0532   17.1317 H         1 SUB1        0.080
     46 H141        3.2350   22.4372   16.6956 H         1 SUB1        0.031
     47 H142        4.1916   22.4082   15.1756 H         1 SUB1        0.031
     48 H151        5.5888   23.4779   16.7817 H         1 SUB1        0.028
     49 H152        6.2242   21.8044   16.6318 H         1 SUB1        0.028
     50 H161        4.9119   21.2132   18.7340 H         1 SUB1        0.050
     51 H162        4.5391   22.9610   18.9145 H         1 SUB1        0.050
     52 H171        7.1754   23.1226   18.5812 H         1 SUB1        0.198
     53 H191        5.4936   20.8439   20.7213 H         1 SUB1        0.194
     54 H192        6.9111   20.7006   21.7950 H         1 SUB1        0.194
     55 H201        8.9561   22.8513   19.8766 H         1 SUB1        0.194
     56 H202        8.8457   21.8185   21.3271 H         1 SUB1        0.194
     57 H211        1.7724   19.8687   17.1849 H         1 SUB1        0.190
     58 H221        0.1750   20.5700   14.8265 H         1 SUB1        0.078
     59 H251       -0.7308   18.0599   16.2054 H         1 SUB1        0.032
     60 H252        0.5408   17.9622   14.9405 H         1 SUB1        0.032
     61 H261       -0.9043   19.2225   13.3396 H         1 SUB1        0.027
     62 H262       -2.1547   19.4511   14.6087 H         1 SUB1        0.027
     63 H271       -2.3866   17.0048   14.7895 H         1 SUB1        0.032
     64 H272       -1.1796   16.8088   13.4738 H         1 SUB1        0.032
     65 H281       -3.7531   16.6455   13.0590 H         1 SUB1        0.081
     66 H282       -2.6204   17.3600   11.8620 H         1 SUB1        0.081
     67 H291       -4.3953   18.8415   13.6568 H         1 SUB1        0.199
     68 H292       -4.6125   18.5903   12.0446 H         1 SUB1        0.199
     69 H293       -3.3486   19.5033   12.5723 H         1 SUB1        0.199
     70 H12         7.7981   16.7132   15.5450 H         1 SUB1        0.201
     71 H13         6.7298   15.9243   14.5723 H         1 SUB1        0.201
@<TRIPOS>BOND
     1    2    1 1  
     2    2    5 1  
     3    3    2 1  
     4    3    4 2  
     5    5    6 1  
     6    6    7 1  
     7    7    8 1  
     8    8    9 1  
     9   11   10 1  
    10   11   14 1  
    11   12   11 1  
    12   12   13 2  
    13   14   15 1  
    14   15   16 1  
    15   16   17 1  
    16   17   18 1  
    17   18   20 1  
    18   18   19 1  
    19   10    3 am 
    20   21   22 1  
    21   22   25 1  
    22   22   23 1  
    23   23   24 2  
    24   23   30 2  
    25   25   26 1  
    26   26   27 1  
    27   27   28 1  
    28   28   29 1  
    29   12   21 am 
    30    1   31 1  
    31    2   32 1  
    32    5   33 1  
    33    5   34 1  
    34    6   35 1  
    35    6   36 1  
    36    7   37 1  
    37    7   38 1  
    38    8   39 1  
    39    8   40 1  
    40    9   41 1  
    41    9   42 1  
    42    9   43 1  
    43   10   44 1  
    44   11   45 1  
    45   14   46 1  
    46   14   47 1  
    47   15   48 1  
    48   15   49 1  
    49   16   50 1  
    50   16   51 1  
    51   17   52 1  
    52   19   53 1  
    53   19   54 1  
    54   20   55 1  
    55   20   56 1  
    56   21   57 1  
    57   22   58 1  
    58   25   59 1  
    59   25   60 1  
    60   26   61 1  
    61   26   62 1  
    62   27   63 1  
    63   27   64 1  
    64   28   65 1  
    65   28   66 1  
    66   29   67 1  
    67   29   68 1  
    68   29   69 1  
    69    1   70 1  
    70    1   71 1  
@<TRIPOS>SUBSTRUCTURE
     1 SUB1        1 GROUP

