1qka_ligand
  -I-interpret- 

 71 70  0  0  0  0  0  0  0  0999 V2000
    6.8330   16.6540   15.2600 N   0  3  0  0  0
    6.4060   17.9620   14.6680 C   0  0  0  0  0
    5.1830   18.4930   15.4130 C   0  0  0  0  0
    4.4460   17.6900   16.0100 O   0  0  0  0  0
    6.0750   17.8590   13.1660 C   0  0  0  0  0
    5.2490   16.6220   12.7870 C   0  0  0  0  0
    5.2030   16.5520   11.2420 C   0  0  0  0  0
    6.4910   15.8840   10.7430 C   0  0  0  0  0
    6.4390   14.4200   11.0120 N   0  3  0  0  0
    5.0260   19.8010   15.4630 N   0  0  0  0  0
    3.9390   20.4660   16.1150 C   0  0  0  0  0
    2.5920   20.2950   15.3940 C   0  0  0  0  0
    2.5030   20.5640   14.1820 O   0  0  0  0  0
    4.1160   22.0070   16.1970 C   0  0  0  0  0
    5.3820   22.4170   16.9860 C   0  0  0  0  0
    5.2560   22.2330   18.5070 C   0  0  0  0  0
    6.5810   22.4550   19.0930 N   0  0  0  0  0
    7.1360   21.9310   20.1800 C   0  3  0  0  0
    6.4640   21.0970   20.9560 N   0  0  0  0  0
    8.4120   22.2230   20.4850 N   0  0  0  0  0
    1.5850   20.0240   16.2150 N   0  0  0  0  0
    0.2130   19.9480   15.7330 C   0  0  0  0  0
   -0.7760   20.5460   16.7500 C   0  0  0  0  0
   -1.9930   20.3050   16.6110 O   0  0  0  0  0
   -0.2890   18.5670   15.3350 C   0  0  0  0  0
   -1.3710   18.7780   14.2310 C   0  0  0  0  0
   -1.9800   17.4510   13.8700 C   0  0  0  0  0
   -3.0850   17.4940   12.8500 C   0  0  0  0  0
   -3.9270   18.7030   12.7750 N   0  3  0  0  0
   -0.4090   21.3940   17.5910 O   0  5  0  0  0
    6.2584   16.4443   16.0612 H   0  0  0  0  0
    7.2330   18.6771   14.7892 H   0  0  0  0  0
    7.0210   17.8269   12.6057 H   0  0  0  0  0
    5.5071   18.7552   12.8756 H   0  0  0  0  0
    4.2294   16.7128   13.1897 H   0  0  0  0  0
    5.7231   15.7152   13.1905 H   0  0  0  0  0
    5.1280   17.5680   10.8272 H   0  0  0  0  0
    4.3317   15.9608   10.9237 H   0  0  0  0  0
    7.3547   16.3206   11.2659 H   0  0  0  0  0
    6.5940   16.0527    9.6609 H   0  0  0  0  0
    6.3553   14.2635   12.0042 H   0  0  0  0  0
    7.2834   13.9859   10.6735 H   0  0  0  0  0
    5.6431   14.0197   10.5404 H   0  0  0  0  0
    5.7154   20.3690   15.0134 H   0  0  0  0  0
    3.8628   20.0532   17.1317 H   0  0  0  0  0
    3.2350   22.4372   16.6956 H   0  0  0  0  0
    4.1916   22.4082   15.1756 H   0  0  0  0  0
    5.5888   23.4779   16.7817 H   0  0  0  0  0
    6.2242   21.8044   16.6318 H   0  0  0  0  0
    4.9119   21.2132   18.7340 H   0  0  0  0  0
    4.5391   22.9610   18.9145 H   0  0  0  0  0
    7.1754   23.1226   18.5812 H   0  0  0  0  0
    5.4936   20.8439   20.7213 H   0  0  0  0  0
    6.9111   20.7006   21.7950 H   0  0  0  0  0
    8.9561   22.8513   19.8766 H   0  0  0  0  0
    8.8457   21.8185   21.3271 H   0  0  0  0  0
    1.7724   19.8687   17.1849 H   0  0  0  0  0
    0.1750   20.5700   14.8265 H   0  0  0  0  0
   -0.7308   18.0599   16.2054 H   0  0  0  0  0
    0.5408   17.9622   14.9405 H   0  0  0  0  0
   -0.9043   19.2225   13.3396 H   0  0  0  0  0
   -2.1547   19.4511   14.6087 H   0  0  0  0  0
   -2.3866   17.0048   14.7895 H   0  0  0  0  0
   -1.1796   16.8088   13.4738 H   0  0  0  0  0
   -3.7531   16.6455   13.0590 H   0  0  0  0  0
   -2.6204   17.3600   11.8620 H   0  0  0  0  0
   -4.3953   18.8415   13.6568 H   0  0  0  0  0
   -4.6125   18.5903   12.0446 H   0  0  0  0  0
   -3.3486   19.5033   12.5723 H   0  0  0  0  0
    7.7981   16.7132   15.5450 H   0  0  0  0  0
    6.7298   15.9243   14.5723 H   0  0  0  0  0
  2  1  1  0  0  0
  2  5  1  0  0  0
  3  2  1  0  0  0
  3  4  2  0  0  0
  5  6  1  0  0  0
  6  7  1  0  0  0
  7  8  1  0  0  0
  8  9  1  0  0  0
 11 10  1  0  0  0
 11 14  1  0  0  0
 12 11  1  0  0  0
 12 13  2  0  0  0
 14 15  1  0  0  0
 15 16  1  0  0  0
 16 17  1  0  0  0
 17 18  1  0  0  0
 18 20  1  0  0  0
 18 19  1  0  0  0
 10  3  1  0  0  0
 21 22  1  0  0  0
 22 25  1  0  0  0
 22 23  1  0  0  0
 23 24  2  0  0  0
 23 30  1  0  0  0
 25 26  1  0  0  0
 26 27  1  0  0  0
 27 28  1  0  0  0
 28 29  1  0  0  0
 12 21  1  0  0  0
  1 31  1  0  0  0
  2 32  1  0  0  0
  5 33  1  0  0  0
  5 34  1  0  0  0
  6 35  1  0  0  0
  6 36  1  0  0  0
  7 37  1  0  0  0
  7 38  1  0  0  0
  8 39  1  0  0  0
  8 40  1  0  0  0
  9 41  1  0  0  0
  9 42  1  0  0  0
  9 43  1  0  0  0
 10 44  1  0  0  0
 11 45  1  0  0  0
 14 46  1  0  0  0
 14 47  1  0  0  0
 15 48  1  0  0  0
 15 49  1  0  0  0
 16 50  1  0  0  0
 16 51  1  0  0  0
 17 52  1  0  0  0
 19 53  1  0  0  0
 19 54  1  0  0  0
 20 55  1  0  0  0
 20 56  1  0  0  0
 21 57  1  0  0  0
 22 58  1  0  0  0
 25 59  1  0  0  0
 25 60  1  0  0  0
 26 61  1  0  0  0
 26 62  1  0  0  0
 27 63  1  0  0  0
 27 64  1  0  0  0
 28 65  1  0  0  0
 28 66  1  0  0  0
 29 67  1  0  0  0
 29 68  1  0  0  0
 29 69  1  0  0  0
  1 70  1  0  0  0
  1 71  1  0  0  0
M  END
$$$$
