### 
### Created by X-TOOL on Mon Oct 24 22:00:42 2005
### 

@<TRIPOS>MOLECULE
1nq7_ligand
   56    56     1     0     0
SMALL
GAST_HUCK


@<TRIPOS>ATOM
      1 H321       29.3184   26.8884   10.3849 H         1 SUB1        0.054
      2 H322       29.6335   25.6879   11.6761 H         1 SUB1        0.054
      3 H323       30.3549   25.4691   10.0401 H         1 SUB1        0.054
      4 H341       26.2197   25.2731    9.2321 H         1 SUB1        0.069
      5 H351       27.9514   27.7116    9.6575 H         1 SUB1        0.108
      6 H361       24.9739   27.5287    8.8974 H         1 SUB1        0.069
      7 H381       28.2140   29.2428    8.2862 H         1 SUB1        0.055
      8 H382       27.5875   29.9951    6.7864 H         1 SUB1        0.055
      9 H383       27.4233   30.8479    8.3646 H         1 SUB1        0.055
     10 H401       23.3682   28.2423    8.0699 H         1 SUB1        0.096
     11 H421       21.4734   31.7444    6.2667 H         1 SUB1        0.093
     12 H441       25.7837   31.6990    6.9503 H         1 SUB1        0.096
     13 H461       22.6843   35.1182    5.1448 H         1 SUB1        0.002
     14 H462       21.9073   33.5428    4.7951 H         1 SUB1        0.002
     15 H463       21.8346   34.2402    6.4544 H         1 SUB1        0.002
     16 H471       25.5805   32.8588    4.8395 H         1 SUB1        0.002
     17 H472       24.0885   32.8015    3.8503 H         1 SUB1        0.002
     18 H473       24.8280   34.3860    4.2833 H         1 SUB1        0.002
     19 H481       23.8772   34.3600    7.8634 H         1 SUB1        0.002
     20 H482       25.4825   33.9520    7.1819 H         1 SUB1        0.002
     21 H483       24.5529   35.3526    6.5346 H         1 SUB1        0.002
     22 H501       19.0775   28.5157    6.1227 H         1 SUB1        0.002
     23 H502       19.8420   30.0099    5.4976 H         1 SUB1        0.002
     24 H503       20.6344   28.4123    5.2434 H         1 SUB1        0.002
     25 H511       20.3184   30.1155    9.1687 H         1 SUB1        0.002
     26 H512       19.6193   30.9521    7.7477 H         1 SUB1        0.002
     27 H513       18.9009   29.4075    8.3335 H         1 SUB1        0.002
     28 H521       21.5816   27.1835    7.2639 H         1 SUB1        0.002
     29 H522       21.3229   27.8602    8.9019 H         1 SUB1        0.002
     30 H523       19.9189   27.3078    7.9178 H         1 SUB1        0.002
     31 H531       27.0784   23.3060    9.8695 H         1 SUB1        0.079
     32 C16        29.4730   25.8200   10.5960 C.3       1 SUB1       -0.000
     33 C9         28.2120   25.0270   10.1460 C.2       1 SUB1        0.017
     34 C13        27.1010   25.8300    9.5470 C.2       1 SUB1       -0.001
     35 C8         27.0650   27.1570    9.3530 C.2       1 SUB1       -0.015
     36 C44        25.9720   27.9480    8.7790 C.2       1 SUB1        0.001
     37 C42        26.0390   29.1630    8.1030 C.2       1 SUB1        0.028
     38 C7         27.4130   29.8680    7.8650 C.3       1 SUB1        0.002
     39 C3         24.7640   29.8650    7.5910 C.ar      1 SUB1        0.055
     40 C4         23.4430   29.2410    7.6550 C.ar      1 SUB1       -0.023
     41 C5         22.2030   29.8970    7.1850 C.ar      1 SUB1       -0.082
     42 C6         22.3610   31.2370    6.6270 C.ar      1 SUB1       -0.055
     43 C1         23.6410   31.9390    6.5230 C.ar      1 SUB1       -0.082
     44 C2         24.8180   31.2110    7.0160 C.ar      1 SUB1       -0.023
     45 C10        23.7890   33.4010    5.9150 C.3       1 SUB1       -0.104
     46 C11        22.4540   34.1230    5.5530 C.3       1 SUB1       -0.122
     47 C15        24.6250   33.3620    4.6300 C.3       1 SUB1       -0.122
     48 C19        24.4790   34.3340    6.9430 C.3       1 SUB1       -0.122
     49 C23        20.7870   29.1800    7.2770 C.3       1 SUB1       -0.104
     50 C24        20.0370   29.0210    5.9380 C.3       1 SUB1       -0.122
     51 C28        19.8360   29.9690    8.1910 C.3       1 SUB1       -0.122
     52 C32        20.9070   27.7900    7.8860 C.3       1 SUB1       -0.122
     53 C14        28.0320   23.6710   10.2480 C.2       1 SUB1        0.030
     54 C12        28.9430   22.6070   10.8000 C.2       1 SUB1        0.123
     55 O2         30.0230   22.8100   11.2630 O.co2     1 SUB1       -0.504
     56 O3         28.5350   21.4670   10.7540 O.co2     1 SUB1       -0.504
@<TRIPOS>BOND
     1   32    1 1  
     2   32    2 1  
     3   32    3 1  
     4   34    4 1  
     5   35    5 1  
     6   36    6 1  
     7   38    7 1  
     8   38    8 1  
     9   38    9 1  
    10   40   10 1  
    11   42   11 1  
    12   44   12 1  
    13   46   13 1  
    14   46   14 1  
    15   46   15 1  
    16   47   16 1  
    17   47   17 1  
    18   47   18 1  
    19   48   19 1  
    20   48   20 1  
    21   48   21 1  
    22   50   22 1  
    23   50   23 1  
    24   50   24 1  
    25   51   25 1  
    26   51   26 1  
    27   51   27 1  
    28   52   28 1  
    29   52   29 1  
    30   52   30 1  
    31   53   31 1  
    32   33   32 1  
    33   34   33 1  
    34   33   53 2  
    35   35   34 2  
    36   36   35 1  
    37   37   36 2  
    38   37   38 1  
    39   39   37 1  
    40   40   39 ar 
    41   39   44 ar 
    42   41   40 ar 
    43   41   42 ar 
    44   49   41 1  
    45   42   43 ar 
    46   43   44 ar 
    47   43   45 1  
    48   45   46 1  
    49   45   47 1  
    50   45   48 1  
    51   49   50 1  
    52   49   51 1  
    53   49   52 1  
    54   53   54 1  
    55   54   55 2  
    56   54   56 2  
@<TRIPOS>SUBSTRUCTURE
     1 SUB1        1 GROUP

