1nq7_ligand
  -I-interpret- 

 56 56  0  0  0  0  0  0  0  0999 V2000
   29.3184   26.8884   10.3849 H   0  0  0  0  0
   29.6335   25.6879   11.6761 H   0  0  0  0  0
   30.3549   25.4691   10.0401 H   0  0  0  0  0
   26.2197   25.2731    9.2321 H   0  0  0  0  0
   27.9514   27.7116    9.6575 H   0  0  0  0  0
   24.9739   27.5287    8.8974 H   0  0  0  0  0
   28.2140   29.2428    8.2862 H   0  0  0  0  0
   27.5875   29.9951    6.7864 H   0  0  0  0  0
   27.4233   30.8479    8.3646 H   0  0  0  0  0
   23.3682   28.2423    8.0699 H   0  0  0  0  0
   21.4734   31.7444    6.2667 H   0  0  0  0  0
   25.7837   31.6990    6.9503 H   0  0  0  0  0
   22.6843   35.1182    5.1448 H   0  0  0  0  0
   21.9073   33.5428    4.7951 H   0  0  0  0  0
   21.8346   34.2402    6.4544 H   0  0  0  0  0
   25.5805   32.8588    4.8395 H   0  0  0  0  0
   24.0885   32.8015    3.8503 H   0  0  0  0  0
   24.8280   34.3860    4.2833 H   0  0  0  0  0
   23.8772   34.3600    7.8634 H   0  0  0  0  0
   25.4825   33.9520    7.1819 H   0  0  0  0  0
   24.5529   35.3526    6.5346 H   0  0  0  0  0
   19.0775   28.5157    6.1227 H   0  0  0  0  0
   19.8420   30.0099    5.4976 H   0  0  0  0  0
   20.6344   28.4123    5.2434 H   0  0  0  0  0
   20.3184   30.1155    9.1687 H   0  0  0  0  0
   19.6193   30.9521    7.7477 H   0  0  0  0  0
   18.9009   29.4075    8.3335 H   0  0  0  0  0
   21.5816   27.1835    7.2639 H   0  0  0  0  0
   21.3229   27.8602    8.9019 H   0  0  0  0  0
   19.9189   27.3078    7.9178 H   0  0  0  0  0
   27.0784   23.3060    9.8695 H   0  0  0  0  0
   29.4730   25.8200   10.5960 C   0  0  0  0  0
   28.2120   25.0270   10.1460 C   0  0  0  0  0
   27.1010   25.8300    9.5470 C   0  0  0  0  0
   27.0650   27.1570    9.3530 C   0  0  0  0  0
   25.9720   27.9480    8.7790 C   0  0  0  0  0
   26.0390   29.1630    8.1030 C   0  0  0  0  0
   27.4130   29.8680    7.8650 C   0  0  0  0  0
   24.7640   29.8650    7.5910 C   0  0  0  0  0
   23.4430   29.2410    7.6550 C   0  0  0  0  0
   22.2030   29.8970    7.1850 C   0  0  0  0  0
   22.3610   31.2370    6.6270 C   0  0  0  0  0
   23.6410   31.9390    6.5230 C   0  0  0  0  0
   24.8180   31.2110    7.0160 C   0  0  0  0  0
   23.7890   33.4010    5.9150 C   0  0  0  0  0
   22.4540   34.1230    5.5530 C   0  0  0  0  0
   24.6250   33.3620    4.6300 C   0  0  0  0  0
   24.4790   34.3340    6.9430 C   0  0  0  0  0
   20.7870   29.1800    7.2770 C   0  0  0  0  0
   20.0370   29.0210    5.9380 C   0  0  0  0  0
   19.8360   29.9690    8.1910 C   0  0  0  0  0
   20.9070   27.7900    7.8860 C   0  0  0  0  0
   28.0320   23.6710   10.2480 C   0  0  0  0  0
   28.9430   22.6070   10.8000 C   0  0  0  0  0
   30.0230   22.8100   11.2630 O   0  0  0  0  0
   28.5350   21.4670   10.7540 O   0  5  0  0  0
 32  1  1  0  0  0
 32  2  1  0  0  0
 32  3  1  0  0  0
 34  4  1  0  0  0
 35  5  1  0  0  0
 36  6  1  0  0  0
 38  7  1  0  0  0
 38  8  1  0  0  0
 38  9  1  0  0  0
 40 10  1  0  0  0
 42 11  1  0  0  0
 44 12  1  0  0  0
 46 13  1  0  0  0
 46 14  1  0  0  0
 46 15  1  0  0  0
 47 16  1  0  0  0
 47 17  1  0  0  0
 47 18  1  0  0  0
 48 19  1  0  0  0
 48 20  1  0  0  0
 48 21  1  0  0  0
 50 22  1  0  0  0
 50 23  1  0  0  0
 50 24  1  0  0  0
 51 25  1  0  0  0
 51 26  1  0  0  0
 51 27  1  0  0  0
 52 28  1  0  0  0
 52 29  1  0  0  0
 52 30  1  0  0  0
 53 31  1  0  0  0
 33 32  1  0  0  0
 34 33  1  0  0  0
 33 53  2  0  0  0
 35 34  2  0  0  0
 36 35  1  0  0  0
 37 36  2  0  0  0
 37 38  1  0  0  0
 39 37  1  0  0  0
 40 39  4  0  0  0
 39 44  4  0  0  0
 41 40  4  0  0  0
 41 42  4  0  0  0
 49 41  1  0  0  0
 42 43  4  0  0  0
 43 44  4  0  0  0
 43 45  1  0  0  0
 45 46  1  0  0  0
 45 47  1  0  0  0
 45 48  1  0  0  0
 49 50  1  0  0  0
 49 51  1  0  0  0
 49 52  1  0  0  0
 53 54  1  0  0  0
 54 55  2  0  0  0
 54 56  1  0  0  0
M  END
$$$$
