1pb8_ligand
  -I-interpret- 

 14 13  0  0  0  0  0  0  0  0999 V2000
   21.1060   41.7630   40.4690 N   0  3  0  0  0
   21.2850   40.3230   40.1650 C   0  0  0  0  0
   22.6950   40.0630   39.5830 C   0  0  0  0  0
   22.9860   38.8950   39.3030 O   0  0  0  0  0
   23.4230   41.0790   39.4360 O   0  5  0  0  0
   20.9860   39.4720   41.3850 C   0  0  0  0  0
   21.7150   39.8780   42.5080 O   0  0  0  0  0
   20.1822   41.9065   40.8459 H   0  0  0  0  0
   21.7878   42.0578   41.1503 H   0  0  0  0  0
   21.2047   42.3071   39.6263 H   0  0  0  0  0
   20.5486   40.0411   39.3981 H   0  0  0  0  0
   19.9153   39.5498   41.6248 H   0  0  0  0  0
   21.2465   38.4258   41.1670 H   0  0  0  0  0
   21.4967   39.3194   43.2448 H   0  0  0  0  0
  1  2  1  0  0  0
  2  3  1  0  0  0
  2  6  1  0  0  0
  3  4  2  0  0  0
  3  5  1  0  0  0
  6  7  1  0  0  0
  1  8  1  0  0  0
  1  9  1  0  0  0
  1 10  1  0  0  0
  2 11  1  0  0  0
  6 12  1  0  0  0
  6 13  1  0  0  0
  7 14  1  0  0  0
M  END
$$$$
