### 
### Created by X-TOOL on Mon Oct 24 21:59:20 2005
### 

@<TRIPOS>MOLECULE
1pb8_ligand
   14    13     1     0     0
SMALL
GAST_HUCK


@<TRIPOS>ATOM
      1 N          21.1060   41.7630   40.4690 N.4       1 SUB1        0.240
      2 CA         21.2850   40.3230   40.1650 C.3       1 SUB1        0.038
      3 C          22.6950   40.0630   39.5830 C.2       1 SUB1        0.078
      4 O          22.9860   38.8950   39.3030 O.co2     1 SUB1       -0.561
      5 OXT        23.4230   41.0790   39.4360 O.co2     1 SUB1       -0.561
      6 CB         20.9860   39.4720   41.3850 C.3       1 SUB1        0.098
      7 OG         21.7150   39.8780   42.5080 O.3       1 SUB1       -0.386
      8 H11        20.1822   41.9065   40.8459 H         1 SUB1        0.202
      9 H12        21.7878   42.0578   41.1503 H         1 SUB1        0.202
     10 H13        21.2047   42.3071   39.6263 H         1 SUB1        0.202
     11 H21        20.5486   40.0411   39.3981 H         1 SUB1        0.109
     12 H61        19.9153   39.5498   41.6248 H         1 SUB1        0.065
     13 H62        21.2465   38.4258   41.1670 H         1 SUB1        0.065
     14 H71        21.4967   39.3194   43.2448 H         1 SUB1        0.210
@<TRIPOS>BOND
     1    1    2 1  
     2    2    3 1  
     3    2    6 1  
     4    3    4 2  
     5    3    5 2  
     6    6    7 1  
     7    1    8 1  
     8    1    9 1  
     9    1   10 1  
    10    2   11 1  
    11    6   12 1  
    12    6   13 1  
    13    7   14 1  
@<TRIPOS>SUBSTRUCTURE
     1 SUB1        1 GROUP

