2ceq_ligand
  -I-interpret- 

 26 27  0  0  0  0  0  0  0  0999 V2000
  118.9130   38.7800   63.3850 C   0  0  0  0  0
  118.5790   37.6730   62.4380 C   0  0  0  0  0
  119.9260   39.6620   63.2380 N   0  0  0  0  0
  119.5740   37.6740   61.2740 C   0  0  0  0  0
  119.9650   39.0960   60.8960 C   0  0  0  0  0
  120.8360   39.6450   62.0510 C   0  0  0  0  0
  121.4240   41.0210   61.7340 C   0  0  0  0  0
  118.8620   40.1580   65.0820 C   0  0  0  0  0
  119.8950   40.5350   64.2560 C   0  0  0  0  0
  118.2650   39.0740   64.5300 N   0  0  0  0  0
  118.9550   37.0080   60.1680 O   0  0  0  0  0
  118.6610   36.3960   63.0810 O   0  0  0  0  0
  120.6820   39.0350   59.6620 O   0  0  0  0  0
  120.3640   41.9800   61.6180 O   0  0  0  0  0
  117.5609   37.8375   62.0852 H   0  0  0  0  0
  120.4882   37.1553   61.5627 H   0  0  0  0  0
  119.1082   39.7554   60.7572 H   0  0  0  0  0
  121.7141   39.0244   62.2297 H   0  0  0  0  0
  121.9742   40.9728   60.7943 H   0  0  0  0  0
  122.0985   41.3209   62.5360 H   0  0  0  0  0
  118.5748   40.6444   66.0142 H   0  0  0  0  0
  120.5631   41.3839   64.4013 H   0  0  0  0  0
  119.5692   36.9758   59.4308 H   0  0  0  0  0
  118.0449   36.3693   63.8168 H   0  0  0  0  0
  120.1064   38.6902   58.9754 H   0  0  0  0  0
  119.8798   42.0218   62.4459 H   0  0  0  0  0
  1  2  1  0  0  0
  1  3  1  0  0  0
  1 10  2  0  0  0
  2  4  1  0  0  0
  2 12  1  0  0  0
  3  6  1  0  0  0
  3  9  1  0  0  0
  4  5  1  0  0  0
  4 11  1  0  0  0
  5  6  1  0  0  0
  5 13  1  0  0  0
  6  7  1  0  0  0
  7 14  1  0  0  0
  9  8  2  0  0  0
  8 10  1  0  0  0
  2 15  1  0  0  0
  4 16  1  0  0  0
  5 17  1  0  0  0
  6 18  1  0  0  0
  7 19  1  0  0  0
  7 20  1  0  0  0
  8 21  1  0  0  0
  9 22  1  0  0  0
 11 23  1  0  0  0
 12 24  1  0  0  0
 13 25  1  0  0  0
 14 26  1  0  0  0
M  END
$$$$
