### 
### Created by X-TOOL on Sun Jun  3 11:19:27 2007
### 

@<TRIPOS>MOLECULE
2ceq_ligand
   26    27     1     0     0
SMALL
GAST_HUCK


@<TRIPOS>ATOM
      1 C1        118.9130   38.7800   63.3850 C.2       1 SUB1        0.147
      2 C2        118.5790   37.6730   62.4380 C.3       1 SUB1        0.159
      3 N10       119.9260   39.6620   63.2380 N.pl3     1 SUB1       -0.240
      4 C3        119.5740   37.6740   61.2740 C.3       1 SUB1        0.125
      5 C4        119.9650   39.0960   60.8960 C.3       1 SUB1        0.118
      6 C5        120.8360   39.6450   62.0510 C.3       1 SUB1        0.120
      7 C6        121.4240   41.0210   61.7340 C.3       1 SUB1        0.077
      8 C7        118.8620   40.1580   65.0820 C.2       1 SUB1       -0.036
      9 C8        119.8950   40.5350   64.2560 C.2       1 SUB1        0.029
     10 N1        118.2650   39.0740   64.5300 N.2       1 SUB1       -0.337
     11 O3        118.9550   37.0080   60.1680 O.3       1 SUB1       -0.384
     12 O2        118.6610   36.3960   63.0810 O.3       1 SUB1       -0.370
     13 O4        120.6820   39.0350   59.6620 O.3       1 SUB1       -0.386
     14 O6        120.3640   41.9800   61.6180 O.3       1 SUB1       -0.392
     15 H         117.5609   37.8375   62.0852 H         1 SUB1        0.086
     16 H         120.4882   37.1553   61.5627 H         1 SUB1        0.068
     17 H         119.1082   39.7554   60.7572 H         1 SUB1        0.065
     18 H         121.7141   39.0244   62.2297 H         1 SUB1        0.070
     19 H         121.9742   40.9728   60.7943 H         1 SUB1        0.059
     20 H         122.0985   41.3209   62.5360 H         1 SUB1        0.059
     21 H         118.5748   40.6444   66.0142 H         1 SUB1        0.041
     22 H         120.5631   41.3839   64.4013 H         1 SUB1        0.080
     23 H         119.5692   36.9758   59.4308 H         1 SUB1        0.210
     24 H         118.0449   36.3693   63.8168 H         1 SUB1        0.214
     25 H         120.1064   38.6902   58.9754 H         1 SUB1        0.210
     26 H         119.8798   42.0218   62.4459 H         1 SUB1        0.209
@<TRIPOS>BOND
     1    1    2 1  
     2    1    3 1  
     3    1   10 2  
     4    2    4 1  
     5    2   12 1  
     6    3    6 1  
     7    3    9 1  
     8    4    5 1  
     9    4   11 1  
    10    5    6 1  
    11    5   13 1  
    12    6    7 1  
    13    7   14 1  
    14    9    8 2  
    15    8   10 1  
    16    2   15 1  
    17    4   16 1  
    18    5   17 1  
    19    6   18 1  
    20    7   19 1  
    21    7   20 1  
    22    8   21 1  
    23    9   22 1  
    24   11   23 1  
    25   12   24 1  
    26   13   25 1  
    27   14   26 1  
@<TRIPOS>SUBSTRUCTURE
     1 SUB1        1 GROUP

