### 
### Created by X-TOOL on Mon Oct 24 22:27:48 2005
### 

@<TRIPOS>MOLECULE
1qhc_ligand
   71    75     1     0     0
SMALL
GAST_HUCK


@<TRIPOS>ATOM
      1 PA         38.9920   -4.3560   21.6870 P.3       1 SUB1        0.301
      2 O1A        40.0580   -5.3370   22.1640 O.co2     1 SUB1       -0.533
      3 O2A        39.4970   -3.0000   21.1910 O.co2     1 SUB1       -0.533
      4 O5'        38.0870   -5.0020   20.5540 O.3       1 SUB1       -0.319
      5 PB         37.0510   -2.8920   23.3060 P.3       1 SUB1        0.302
      6 O1B        36.3860   -2.3420   22.1150 O.co2     1 SUB1       -0.533
      7 O2B        36.2360   -3.3300   24.4510 O.co2     1 SUB1       -0.533
      8 O3A        37.9380   -4.1190   22.8500 O.3       1 SUB1       -0.249
      9 PG         39.7220   -9.8380   19.9040 P.3       1 SUB1        0.206
     10 O1G        38.6520  -10.9000   20.1460 O.co2     1 SUB1       -0.535
     11 O2G        40.9320  -10.3570   19.1340 O.co2     1 SUB1       -0.535
     12 O3G        40.0870   -9.0700   21.1740 O.co2     1 SUB1       -0.535
     13 N9A        37.2400   -5.7040   16.3150 N.pl3     1 SUB1       -0.191
     14 C4A        37.5340   -4.3630   16.1460 C.2       1 SUB1        0.163
     15 N3A        38.2830   -3.5700   16.9460 N.2       1 SUB1       -0.266
     16 C2A        38.3650   -2.3180   16.4440 C.2       1 SUB1        0.053
     17 N1A        37.8180   -1.8170   15.3130 N.2       1 SUB1       -0.274
     18 C6A        37.0770   -2.6390   14.5350 C.2       1 SUB1        0.125
     19 N6A        36.5470   -2.1430   13.4170 N.pl3     1 SUB1       -0.313
     20 C5A        36.9100   -3.9870   14.9570 C.2       1 SUB1        0.105
     21 N7A        36.2250   -5.0600   14.4050 N.2       1 SUB1       -0.301
     22 C8A        36.4440   -6.0450   15.2450 C.2       1 SUB1        0.110
     23 C5'        37.3630   -6.1860   20.8110 C.3       1 SUB1        0.089
     24 C4'        37.4940   -7.1150   19.6450 C.3       1 SUB1        0.121
     25 O4'        36.8210   -6.5390   18.4850 O.3       1 SUB1       -0.336
     26 C1'        37.6710   -6.6470   17.3620 C.3       1 SUB1        0.202
     27 C2'        39.0800   -6.5310   17.9450 C.3       1 SUB1        0.143
     28 O2'        40.0810   -7.0220   17.0640 O.3       1 SUB1       -0.383
     29 C3'        38.9360   -7.3800   19.2100 C.3       1 SUB1        0.136
     30 O3'        39.0320   -8.7660   18.8900 O.3       1 SUB1       -0.314
     31 O5         39.8780    1.8350   22.3930 O.3       1 SUB1       -0.320
     32 C5         40.5620    0.7860   23.1070 C.3       1 SUB1        0.095
     33 C4         39.5800    0.0470   23.9840 C.3       1 SUB1        0.118
     34 O4         38.8640    1.0110   24.7940 O.3       1 SUB1       -0.338
     35 C1         37.4750    0.9180   24.5350 C.3       1 SUB1        0.180
     36 C2         37.3500    0.2620   23.1740 C.3       1 SUB1        0.034
     37 C3         38.5090   -0.7110   23.2010 C.3       1 SUB1        0.104
     38 O3         38.1300   -1.8740   23.9250 O.3       1 SUB1       -0.316
     39 PD         40.2490    2.1940   20.8430 P.3       1 SUB1        0.205
     40 O1D        41.3350    3.2710   20.9280 O.co2     1 SUB1       -0.535
     41 O2D        38.9510    2.7070   20.1950 O.co2     1 SUB1       -0.535
     42 O3D        40.7550    0.8890   20.2250 O.co2     1 SUB1       -0.535
     43 N1U        36.9080    2.2720   24.5600 N.am      1 SUB1       -0.162
     44 C6U        37.4650    3.3020   23.8020 C.2       1 SUB1        0.059
     45 C2U        35.7660    2.4790   25.3340 C.2       1 SUB1        0.333
     46 O2U        35.2660    1.6160   26.0290 O.2       1 SUB1       -0.382
     47 N3U        35.2330    3.7450   25.2410 N.am      1 SUB1       -0.186
     48 C4U        35.7040    4.7970   24.4630 C.2       1 SUB1        0.182
     49 O4U        35.0040    5.7950   24.3380 O.2       1 SUB1       -0.412
     50 C5U        36.9130    4.5210   23.7240 C.2       1 SUB1        0.006
     51 H161       38.9532   -1.6148   17.0317 H         1 SUB1        0.108
     52 H191       35.9783   -2.7456   12.8052 H         1 SUB1        0.182
     53 H192       36.7062   -1.1571   13.1649 H         1 SUB1        0.182
     54 H221       36.0322   -7.0437   15.1074 H         1 SUB1        0.131
     55 H231       36.3021   -5.9404   20.9665 H         1 SUB1        0.062
     56 H232       37.7630   -6.6717   21.7132 H         1 SUB1        0.062
     57 H241       37.0221   -8.0717   19.9134 H         1 SUB1        0.065
     58 H261       37.5767   -7.6537   16.9289 H         1 SUB1        0.100
     59 H271       39.3164   -5.4868   18.1973 H         1 SUB1        0.068
     60 H281       39.8602   -7.9066   16.7971 H         1 SUB1        0.210
     61 H291       39.6690   -7.0985   19.9803 H         1 SUB1        0.070
     62 H321       41.0097    0.0850   22.3872 H         1 SUB1        0.064
     63 H322       41.3534    1.2247   23.7325 H         1 SUB1        0.064
     64 H331       40.1335   -0.6568   24.6230 H         1 SUB1        0.065
     65 H351       36.9773    0.2991   25.2960 H         1 SUB1        0.097
     66 H361       36.3884   -0.2612   23.0669 H         1 SUB1        0.035
     67 H362       37.4604    0.9962   22.3624 H         1 SUB1        0.035
     68 H371       38.8487   -0.9755   22.1888 H         1 SUB1        0.066
     69 H441       38.3846    3.1081   23.2519 H         1 SUB1        0.118
     70 H471       34.4191    3.9278   25.7926 H         1 SUB1        0.226
     71 H501       37.3715    5.2947   23.1099 H         1 SUB1        0.026
@<TRIPOS>BOND
     1    1    8 1  
     2    1    4 1  
     3    1    3 2  
     4    1    2 2  
     5    4   23 1  
     6   23   24 1  
     7   24   29 1  
     8   24   25 1  
     9   25   26 1  
    10   26   27 1  
    11   26   13 1  
    12   13   22 1  
    13   13   14 1  
    14   14   20 2  
    15   14   15 1  
    16   15   16 2  
    17   16   17 1  
    18   17   18 2  
    19   18   20 1  
    20   18   19 1  
    21   20   21 1  
    22   21   22 2  
    23   27   29 1  
    24   27   28 1  
    25   29   30 1  
    26   30    9 1  
    27    9   12 2  
    28    9   11 2  
    29    9   10 2  
    30    8    5 1  
    31    5   38 1  
    32    5    7 2  
    33    5    6 2  
    34   38   37 1  
    35   37   36 1  
    36   37   33 1  
    37   33   34 1  
    38   33   32 1  
    39   32   31 1  
    40   31   39 1  
    41   39   42 2  
    42   39   41 2  
    43   39   40 2  
    44   34   35 1  
    45   35   43 1  
    46   35   36 1  
    47   43   45 am 
    48   43   44 am 
    49   44   50 2  
    50   50   48 1  
    51   48   49 2  
    52   48   47 am 
    53   47   45 am 
    54   45   46 2  
    55   16   51 1  
    56   19   52 1  
    57   19   53 1  
    58   22   54 1  
    59   23   55 1  
    60   23   56 1  
    61   24   57 1  
    62   26   58 1  
    63   27   59 1  
    64   28   60 1  
    65   29   61 1  
    66   32   62 1  
    67   32   63 1  
    68   33   64 1  
    69   35   65 1  
    70   36   66 1  
    71   36   67 1  
    72   37   68 1  
    73   44   69 1  
    74   47   70 1  
    75   50   71 1  
@<TRIPOS>SUBSTRUCTURE
     1 SUB1        1 GROUP

