### 
### Created by X-TOOL on Mon Oct 24 22:41:29 2005
### 

@<TRIPOS>MOLECULE
1e5a_ligand
   13    13     1     0     0
SMALL
GAST_HUCK


@<TRIPOS>ATOM
      1 H41        43.4662   -0.6306   30.0890 H         1 SUB1        0.252
      2 H71        43.8693   -1.0895   25.6519 H         1 SUB1        0.067
      3 H91        40.6674    1.5348   26.3102 H         1 SUB1        0.067
      4 O1         42.7820    0.0060   29.9180 O.3       1 SUB1       -0.327
      5 C1         42.5740    0.0900   28.6050 C.ar      1 SUB1        0.111
      6 C2         43.5750   -0.5490   27.7490 C.ar      1 SUB1        0.046
      7 C3         43.2630   -0.5080   26.3370 C.ar      1 SUB1       -0.049
      8 C4         42.2080    0.2540   25.8220 C.ar      1 SUB1        0.007
      9 C5         41.4730    0.9330   26.7150 C.ar      1 SUB1       -0.049
     10 C6         41.6080    0.9560   27.9860 C.ar      1 SUB1        0.046
     11 BR2        44.9170   -1.5730   28.5020 Br        1 SUB1       -0.056
     12 BR4        41.9870    0.2930   23.9810 Br        1 SUB1       -0.058
     13 BR6        40.4580    1.7580   29.2500 Br        1 SUB1       -0.056
@<TRIPOS>BOND
     1   10   13 1  
     2    6   11 1  
     3    8   12 1  
     4    4    1 1  
     5    7    2 1  
     6    9    3 1  
     7    5    4 1  
     8    5   10 ar 
     9    6    5 ar 
    10    7    6 ar 
    11    8    7 ar 
    12    8    9 ar 
    13    9   10 ar 
@<TRIPOS>SUBSTRUCTURE
     1 SUB1        1 GROUP

