1e5a_ligand
  -I-interpret- 

 13 13  0  0  0  0  0  0  0  0999 V2000
   43.4662   -0.6306   30.0890 H   0  0  0  0  0
   43.8693   -1.0895   25.6519 H   0  0  0  0  0
   40.6674    1.5348   26.3102 H   0  0  0  0  0
   42.7820    0.0060   29.9180 O   0  0  0  0  0
   42.5740    0.0900   28.6050 C   0  0  0  0  0
   43.5750   -0.5490   27.7490 C   0  0  0  0  0
   43.2630   -0.5080   26.3370 C   0  0  0  0  0
   42.2080    0.2540   25.8220 C   0  0  0  0  0
   41.4730    0.9330   26.7150 C   0  0  0  0  0
   41.6080    0.9560   27.9860 C   0  0  0  0  0
   44.9170   -1.5730   28.5020 Br  0  0  0  0  0
   41.9870    0.2930   23.9810 Br  0  0  0  0  0
   40.4580    1.7580   29.2500 Br  0  0  0  0  0
 10 13  1  0  0  0
  6 11  1  0  0  0
  8 12  1  0  0  0
  4  1  1  0  0  0
  7  2  1  0  0  0
  9  3  1  0  0  0
  5  4  1  0  0  0
  5 10  4  0  0  0
  6  5  4  0  0  0
  7  6  4  0  0  0
  8  7  4  0  0  0
  8  9  4  0  0  0
  9 10  4  0  0  0
M  END
$$$$
