1apw_ligand
  -I-interpret- 

 79 78  0  0  0  0  0  0  0  0999 V2000
   16.0840    4.4610   17.7960 C   0  0  0  0  0
   14.8430    3.8580   18.4520 C   0  0  0  0  0
   14.3540    4.8740   19.4690 C   0  0  0  0  0
   13.7470    3.5900   17.4470 C   0  0  0  0  0
   17.2070    4.7150   18.8020 C   0  0  0  0  0
   17.2750    4.0360   19.8570 O   0  0  0  0  0
   18.0800    5.6360   18.4920 N   0  0  0  0  0
   19.2180    5.9090   19.3990 C   0  0  0  0  0
   19.1120    7.2860   20.0730 C   0  0  0  0  0
   18.2720    8.0860   19.6240 O   0  0  0  0  0
   20.4700    5.7770   18.4920 C   0  0  0  0  0
   20.5610    4.4210   17.7960 C   0  0  0  0  0
   20.4440    6.8290   17.3790 C   0  0  0  0  0
   19.9740    7.4100   21.0550 N   0  0  0  0  0
   20.0420    8.6950   21.8260 C   0  0  0  0  0
   21.5340    9.0230   21.9350 C   0  0  0  0  0
   22.1540    8.4020   22.8160 O   0  0  0  0  0
   19.3120    8.6400   23.1800 C   0  0  0  0  0
   19.2610   10.0270   23.8480 C   0  0  0  0  0
   17.9070    8.1110   23.0550 C   0  0  0  0  0
   22.0560    9.9170   21.0780 N   0  0  0  0  0
   23.4740   10.2430   21.0960 C   0  0  0  0  0
   24.1080    9.7490   19.7650 C   0  0  0  0  0
   23.8560    8.2980   19.4030 C   0  0  0  0  0
   24.4200    8.0080   17.9990 C   0  0  0  0  0
   24.4870    7.3210   20.4130 C   0  0  0  0  0
   23.7370   11.7430   21.2650 C   0  0  0  0  0
   22.8880   12.5040   20.3570 O   0  0  0  0  0
   23.4880   12.3710   22.6610 C   0  0  0  0  0
   24.5910   11.9540   23.6870 C   0  0  0  0  0
   24.5680   10.8510   24.2720 O   0  0  0  0  0
   22.3150   11.9820   23.1560 F   0  0  0  0  0
   23.3830   13.7150   22.6590 F   0  0  0  0  0
   25.5250   12.8650   23.8560 N   0  0  0  0  0
   26.6620   12.6360   24.8010 C   0  0  0  0  0
   17.9799    6.1558   17.6436 H   0  0  0  0  0
   19.2532    5.1452   20.1898 H   0  0  0  0  0
   21.3643    5.9223   19.1158 H   0  0  0  0  0
   20.6204    3.6241   18.5519 H   0  0  0  0  0
   21.4600    4.3934   17.1628 H   0  0  0  0  0
   19.6681    4.2685   17.1719 H   0  0  0  0  0
   19.5480    6.6834   16.7578 H   0  0  0  0  0
   21.3437    6.7248   16.7548 H   0  0  0  0  0
   20.4216    7.8343   17.8250 H   0  0  0  0  0
   20.5825    6.6515   21.2881 H   0  0  0  0  0
   19.5552    9.4838   21.2337 H   0  0  0  0  0
   19.8767    7.9606   23.8354 H   0  0  0  0  0
   20.2854   10.3853   24.0277 H   0  0  0  0  0
   18.7251    9.9533   24.8058 H   0  0  0  0  0
   18.7362   10.7330   23.1876 H   0  0  0  0  0
   17.3254    8.7683   22.3920 H   0  0  0  0  0
   17.4360    8.0830   24.0486 H   0  0  0  0  0
   17.9337    7.0955   22.6331 H   0  0  0  0  0
   25.4742   13.7232   23.3452 H   0  0  0  0  0
   15.8070    5.4164   17.3265 H   0  0  0  0  0
   16.4498    3.7663   17.0256 H   0  0  0  0  0
   15.1100    2.9163   18.9538 H   0  0  0  0  0
   13.4564    4.4859   19.9726 H   0  0  0  0  0
   14.1087    5.8163   18.9572 H   0  0  0  0  0
   15.1426    5.0558   20.2140 H   0  0  0  0  0
   14.0984    2.8541   16.7088 H   0  0  0  0  0
   13.4828    4.5265   16.9340 H   0  0  0  0  0
   12.8619    3.1942   17.9665 H   0  0  0  0  0
   21.4580   10.3671   20.4148 H   0  0  0  0  0
   23.9435    9.7134   21.9381 H   0  0  0  0  0
   25.1961    9.8930   19.8375 H   0  0  0  0  0
   23.7090   10.3723   18.9512 H   0  0  0  0  0
   22.7690    8.1299   19.3919 H   0  0  0  0  0
   24.2354    6.9550   17.7400 H   0  0  0  0  0
   25.5025    8.2031   17.9912 H   0  0  0  0  0
   23.9248    8.6587   17.2633 H   0  0  0  0  0
   24.0876    7.5237   21.4177 H   0  0  0  0  0
   25.5789    7.4540   20.4188 H   0  0  0  0  0
   24.2450    6.2876   20.1239 H   0  0  0  0  0
   24.7925   11.9114   21.0051 H   0  0  0  0  0
   23.0581   13.4319   20.4691 H   0  0  0  0  0
   27.3262   13.5128   24.7947 H   0  0  0  0  0
   27.2267   11.7460   24.4864 H   0  0  0  0  0
   26.2691   12.4810   25.8167 H   0  0  0  0  0
  8  7  1  0  0  0
  8 11  1  0  0  0
  9  8  1  0  0  0
  9 10  2  0  0  0
 11 13  1  0  0  0
 11 12  1  0  0  0
 15 14  1  0  0  0
 15 18  1  0  0  0
 16 15  1  0  0  0
 16 17  2  0  0  0
 18 20  1  0  0  0
 18 19  1  0  0  0
 14  9  1  0  0  0
 34 35  1  0  0  0
  1  2  1  0  0  0
  5  1  1  0  0  0
  2  3  1  0  0  0
  2  4  1  0  0  0
  5  6  2  0  0  0
  7  5  1  0  0  0
 21 16  1  0  0  0
 22 21  1  0  0  0
 22 23  1  0  0  0
 27 22  1  0  0  0
 23 24  1  0  0  0
 24 25  1  0  0  0
 24 26  1  0  0  0
 27 28  1  0  0  0
 29 27  1  0  0  0
 30 29  1  0  0  0
 29 32  1  0  0  0
 29 33  1  0  0  0
 30 31  2  0  0  0
 30 34  1  0  0  0
  7 36  1  0  0  0
  8 37  1  0  0  0
 11 38  1  0  0  0
 12 39  1  0  0  0
 12 40  1  0  0  0
 12 41  1  0  0  0
 13 42  1  0  0  0
 13 43  1  0  0  0
 13 44  1  0  0  0
 14 45  1  0  0  0
 15 46  1  0  0  0
 18 47  1  0  0  0
 19 48  1  0  0  0
 19 49  1  0  0  0
 19 50  1  0  0  0
 20 51  1  0  0  0
 20 52  1  0  0  0
 20 53  1  0  0  0
 34 54  1  0  0  0
  1 55  1  0  0  0
  1 56  1  0  0  0
  2 57  1  0  0  0
  3 58  1  0  0  0
  3 59  1  0  0  0
  3 60  1  0  0  0
  4 61  1  0  0  0
  4 62  1  0  0  0
  4 63  1  0  0  0
 21 64  1  0  0  0
 22 65  1  0  0  0
 23 66  1  0  0  0
 23 67  1  0  0  0
 24 68  1  0  0  0
 25 69  1  0  0  0
 25 70  1  0  0  0
 25 71  1  0  0  0
 26 72  1  0  0  0
 26 73  1  0  0  0
 26 74  1  0  0  0
 27 75  1  0  0  0
 28 76  1  0  0  0
 35 77  1  0  0  0
 35 78  1  0  0  0
 35 79  1  0  0  0
M  END
$$$$
