### 
### Created by X-TOOL on Mon Oct 24 22:39:21 2005
### 

@<TRIPOS>MOLECULE
1apw_ligand
   79    78     1     0     0
SMALL
GAST_HUCK


@<TRIPOS>ATOM
      1 CA         16.0840    4.4610   17.7960 C.3       1 SUB1        0.040
      2 CB         14.8430    3.8580   18.4520 C.3       1 SUB1       -0.030
      3 CG1        14.3540    4.8740   19.4690 C.3       1 SUB1       -0.061
      4 CG2        13.7470    3.5900   17.4470 C.3       1 SUB1       -0.061
      5 C          17.2070    4.7150   18.8020 C.2       1 SUB1        0.178
      6 O          17.2750    4.0360   19.8570 O.2       1 SUB1       -0.397
      7 N          18.0800    5.6360   18.4920 N.am      1 SUB1       -0.265
      8 CA         19.2180    5.9090   19.3990 C.3       1 SUB1        0.133
      9 C          19.1120    7.2860   20.0730 C.2       1 SUB1        0.204
     10 O          18.2720    8.0860   19.6240 O.2       1 SUB1       -0.394
     11 CB         20.4700    5.7770   18.4920 C.3       1 SUB1       -0.006
     12 CG1        20.5610    4.4210   17.7960 C.3       1 SUB1       -0.058
     13 CG2        20.4440    6.8290   17.3790 C.3       1 SUB1       -0.058
     14 N          19.9740    7.4100   21.0550 N.am      1 SUB1       -0.264
     15 CA         20.0420    8.6950   21.8260 C.3       1 SUB1        0.133
     16 C          21.5340    9.0230   21.9350 C.2       1 SUB1        0.202
     17 O          22.1540    8.4020   22.8160 O.2       1 SUB1       -0.394
     18 CB         19.3120    8.6400   23.1800 C.3       1 SUB1       -0.006
     19 CG1        19.2610   10.0270   23.8480 C.3       1 SUB1       -0.058
     20 CG2        17.9070    8.1110   23.0550 C.3       1 SUB1       -0.058
     21 N          22.0560    9.9170   21.0780 N.am      1 SUB1       -0.280
     22 CA         23.4740   10.2430   21.0960 C.3       1 SUB1        0.073
     23 CB         24.1080    9.7490   19.7650 C.3       1 SUB1       -0.025
     24 CG         23.8560    8.2980   19.4030 C.3       1 SUB1       -0.045
     25 CD1        24.4200    8.0080   17.9990 C.3       1 SUB1       -0.063
     26 CD2        24.4870    7.3210   20.4130 C.3       1 SUB1       -0.063
     27 CH         23.7370   11.7430   21.2650 C.3       1 SUB1        0.148
     28 OH         22.8880   12.5040   20.3570 O.3       1 SUB1       -0.385
     29 CM         23.4880   12.3710   22.6610 C.3       1 SUB1        0.350
     30 C          24.5910   11.9540   23.6870 C.2       1 SUB1        0.268
     31 O          24.5680   10.8510   24.2720 O.2       1 SUB1       -0.338
     32 F1         22.3150   11.9820   23.1560 F         1 SUB1       -0.198
     33 F2         23.3830   13.7150   22.6590 F         1 SUB1       -0.198
     34 N          25.5250   12.8650   23.8560 N.am      1 SUB1       -0.284
     35 CH3        26.6620   12.6360   24.8010 C.3       1 SUB1        0.020
     36 H71        17.9799    6.1558   17.6436 H         1 SUB1        0.188
     37 H81        19.2532    5.1452   20.1898 H         1 SUB1        0.080
     38 H111       21.3643    5.9223   19.1158 H         1 SUB1        0.034
     39 H121       20.6204    3.6241   18.5519 H         1 SUB1        0.023
     40 H122       21.4600    4.3934   17.1628 H         1 SUB1        0.023
     41 H123       19.6681    4.2685   17.1719 H         1 SUB1        0.023
     42 H131       19.5480    6.6834   16.7578 H         1 SUB1        0.023
     43 H132       21.3437    6.7248   16.7548 H         1 SUB1        0.023
     44 H133       20.4216    7.8343   17.8250 H         1 SUB1        0.023
     45 H141       20.5825    6.6515   21.2881 H         1 SUB1        0.188
     46 H151       19.5552    9.4838   21.2337 H         1 SUB1        0.080
     47 H181       19.8767    7.9606   23.8354 H         1 SUB1        0.034
     48 H191       20.2854   10.3853   24.0277 H         1 SUB1        0.023
     49 H192       18.7251    9.9533   24.8058 H         1 SUB1        0.023
     50 H193       18.7362   10.7330   23.1876 H         1 SUB1        0.023
     51 H201       17.3254    8.7683   22.3920 H         1 SUB1        0.023
     52 H202       17.4360    8.0830   24.0486 H         1 SUB1        0.023
     53 H203       17.9337    7.0955   22.6331 H         1 SUB1        0.023
     54 H341       25.4742   13.7232   23.3452 H         1 SUB1        0.185
     55 H11        15.8070    5.4164   17.3265 H         1 SUB1        0.051
     56 H12        16.4498    3.7663   17.0256 H         1 SUB1        0.051
     57 H21        15.1100    2.9163   18.9538 H         1 SUB1        0.032
     58 H31        13.4564    4.4859   19.9726 H         1 SUB1        0.023
     59 H32        14.1087    5.8163   18.9572 H         1 SUB1        0.023
     60 H33        15.1426    5.0558   20.2140 H         1 SUB1        0.023
     61 H41        14.0984    2.8541   16.7088 H         1 SUB1        0.023
     62 H42        13.4828    4.5265   16.9340 H         1 SUB1        0.023
     63 H43        12.8619    3.1942   17.9665 H         1 SUB1        0.023
     64 H211       21.4580   10.3671   20.4148 H         1 SUB1        0.185
     65 H221       23.9435    9.7134   21.9381 H         1 SUB1        0.058
     66 H231       25.1961    9.8930   19.8375 H         1 SUB1        0.029
     67 H232       23.7090   10.3723   18.9512 H         1 SUB1        0.029
     68 H241       22.7690    8.1299   19.3919 H         1 SUB1        0.030
     69 H251       24.2354    6.9550   17.7400 H         1 SUB1        0.023
     70 H252       25.5025    8.2031   17.9912 H         1 SUB1        0.023
     71 H253       23.9248    8.6587   17.2633 H         1 SUB1        0.023
     72 H261       24.0876    7.5237   21.4177 H         1 SUB1        0.023
     73 H262       25.5789    7.4540   20.4188 H         1 SUB1        0.023
     74 H263       24.2450    6.2876   20.1239 H         1 SUB1        0.023
     75 H271       24.7925   11.9114   21.0051 H         1 SUB1        0.066
     76 H281       23.0581   13.4319   20.4691 H         1 SUB1        0.210
     77 H351       27.3262   13.5128   24.7947 H         1 SUB1        0.049
     78 H352       27.2267   11.7460   24.4864 H         1 SUB1        0.049
     79 H353       26.2691   12.4810   25.8167 H         1 SUB1        0.049
@<TRIPOS>BOND
     1    8    7 1  
     2    8   11 1  
     3    9    8 1  
     4    9   10 2  
     5   11   13 1  
     6   11   12 1  
     7   15   14 1  
     8   15   18 1  
     9   16   15 1  
    10   16   17 2  
    11   18   20 1  
    12   18   19 1  
    13   14    9 am 
    14   34   35 1  
    15    1    2 1  
    16    5    1 1  
    17    2    3 1  
    18    2    4 1  
    19    5    6 2  
    20    7    5 am 
    21   21   16 am 
    22   22   21 1  
    23   22   23 1  
    24   27   22 1  
    25   23   24 1  
    26   24   25 1  
    27   24   26 1  
    28   27   28 1  
    29   29   27 1  
    30   30   29 1  
    31   29   32 1  
    32   29   33 1  
    33   30   31 2  
    34   30   34 am 
    35    7   36 1  
    36    8   37 1  
    37   11   38 1  
    38   12   39 1  
    39   12   40 1  
    40   12   41 1  
    41   13   42 1  
    42   13   43 1  
    43   13   44 1  
    44   14   45 1  
    45   15   46 1  
    46   18   47 1  
    47   19   48 1  
    48   19   49 1  
    49   19   50 1  
    50   20   51 1  
    51   20   52 1  
    52   20   53 1  
    53   34   54 1  
    54    1   55 1  
    55    1   56 1  
    56    2   57 1  
    57    3   58 1  
    58    3   59 1  
    59    3   60 1  
    60    4   61 1  
    61    4   62 1  
    62    4   63 1  
    63   21   64 1  
    64   22   65 1  
    65   23   66 1  
    66   23   67 1  
    67   24   68 1  
    68   25   69 1  
    69   25   70 1  
    70   25   71 1  
    71   26   72 1  
    72   26   73 1  
    73   26   74 1  
    74   27   75 1  
    75   28   76 1  
    76   35   77 1  
    77   35   78 1  
    78   35   79 1  
@<TRIPOS>SUBSTRUCTURE
     1 SUB1        1 GROUP

