1x8j_ligand
  -I-interpret- 

 51 54  0  0  0  0  0  0  0  0999 V2000
   22.5483   -7.1361   40.1620 H   0  0  0  0  0
   23.0834   -6.7298   41.8279 H   0  0  0  0  0
   25.0378   -7.2846   40.4468 H   0  0  0  0  0
   24.2997   -8.8523   39.9734 H   0  0  0  0  0
   25.9265   -9.3021   41.7208 H   0  0  0  0  0
   25.7403   -8.0861   43.7257 H   0  0  0  0  0
   24.5461  -10.1158   43.6135 H   0  0  0  0  0
   23.9747  -10.6383   41.9926 H   0  0  0  0  0
   22.8058   -8.3783   43.6963 H   0  0  0  0  0
   22.2041  -10.6106   44.5848 H   0  0  0  0  0
   21.6275  -11.1186   42.9612 H   0  0  0  0  0
   20.5048   -8.8755   44.6861 H   0  0  0  0  0
   19.7489  -10.4740   44.3700 H   0  0  0  0  0
   19.5097   -9.9148   41.9797 H   0  0  0  0  0
   20.7510   -7.2042   42.7690 H   0  0  0  0  0
   19.7274   -8.2077   40.0459 H   0  0  0  0  0
   20.4853   -6.6119   40.3711 H   0  0  0  0  0
   17.9662   -6.4670   40.2079 H   0  0  0  0  0
   18.5732   -5.9601   41.8207 H   0  0  0  0  0
   18.5549   -7.6471   43.7310 H   0  0  0  0  0
   17.4727   -9.5945   44.7393 H   0  0  0  0  0
   16.9607  -10.2061   43.1298 H   0  0  0  0  0
   16.0275   -7.7240   44.6366 H   0  0  0  0  0
   15.0823   -8.8300   43.5829 H   0  0  0  0  0
   16.5805   -8.4479   39.9198 H   0  0  0  0  0
   16.4110   -9.6583   41.2362 H   0  0  0  0  0
   17.9749   -9.4873   40.3691 H   0  0  0  0  0
   22.8148  -10.1548   40.3124 H   0  0  0  0  0
   21.3745   -9.2949   39.6702 H   0  0  0  0  0
   21.1815  -10.5336   40.9567 H   0  0  0  0  0
   22.9800   -7.5390   41.0900 C   0  0  0  0  0
   24.3850   -8.1060   40.7770 C   0  0  0  0  0
   25.0090   -8.7760   42.0230 C   0  0  0  0  0
   25.3520   -7.7130   42.9430 O   0  0  0  0  0
   24.0890   -9.7800   42.6710 C   0  0  0  0  0
   22.6790   -9.2060   42.9830 C   0  0  0  0  0
   21.7460  -10.2660   43.6460 C   0  0  0  0  0
   20.3830   -9.6810   43.9470 C   0  0  0  0  0
   19.6740   -9.0990   42.6990 C   0  0  0  0  0
   20.5900   -8.0130   42.0410 C   0  0  0  0  0
   22.0060   -8.6220   41.6670 C   0  0  0  0  0
   19.8580   -7.4110   40.7930 C   0  0  0  0  0
   18.4480   -6.8110   41.1350 C   0  0  0  0  0
   17.5610   -7.8710   41.8020 C   0  0  0  0  0
   18.3140   -8.4700   43.0420 C   0  0  0  0  0
   17.1990   -9.3050   43.7140 C   0  0  0  0  0
   16.0410   -8.3040   43.7020 C   0  0  0  0  0
   16.2940   -7.3780   42.5030 C   0  0  0  0  0
   15.6040   -6.4500   42.2020 O   0  0  0  0  0
   17.0970   -8.9470   40.7530 C   0  0  0  0  0
   21.8310   -9.7350   40.5690 C   0  0  0  0  0
 31  1  1  0  0  0
 31  2  1  0  0  0
 32  3  1  0  0  0
 32  4  1  0  0  0
 33  5  1  0  0  0
 34  6  1  0  0  0
 35  7  1  0  0  0
 35  8  1  0  0  0
 36  9  1  0  0  0
 37 10  1  0  0  0
 37 11  1  0  0  0
 38 12  1  0  0  0
 38 13  1  0  0  0
 39 14  1  0  0  0
 40 15  1  0  0  0
 42 16  1  0  0  0
 42 17  1  0  0  0
 43 18  1  0  0  0
 43 19  1  0  0  0
 45 20  1  0  0  0
 46 21  1  0  0  0
 46 22  1  0  0  0
 47 23  1  0  0  0
 47 24  1  0  0  0
 50 25  1  0  0  0
 50 26  1  0  0  0
 50 27  1  0  0  0
 51 28  1  0  0  0
 51 29  1  0  0  0
 51 30  1  0  0  0
 31 32  1  0  0  0
 41 31  1  0  0  0
 32 33  1  0  0  0
 33 34  1  0  0  0
 35 33  1  0  0  0
 36 35  1  0  0  0
 37 36  1  0  0  0
 41 36  1  0  0  0
 38 37  1  0  0  0
 39 38  1  0  0  0
 39 40  1  0  0  0
 45 39  1  0  0  0
 40 41  1  0  0  0
 40 42  1  0  0  0
 41 51  1  0  0  0
 43 42  1  0  0  0
 44 43  1  0  0  0
 45 44  1  0  0  0
 44 48  1  0  0  0
 44 50  1  0  0  0
 46 45  1  0  0  0
 46 47  1  0  0  0
 47 48  1  0  0  0
 48 49  2  0  0  0
M  END
$$$$
