### 
### Created by X-TOOL on Tue Oct 25 02:05:39 2005
### 

@<TRIPOS>MOLECULE
1x8j_ligand
   51    54     1     0     0
SMALL
GAST_HUCK


@<TRIPOS>ATOM
      1 H311       22.5483   -7.1361   40.1620 H         1 SUB1        0.027
      2 H312       23.0834   -6.7298   41.8279 H         1 SUB1        0.027
      3 H321       25.0378   -7.2846   40.4468 H         1 SUB1        0.029
      4 H322       24.2997   -8.8523   39.9734 H         1 SUB1        0.029
      5 H331       25.9265   -9.3021   41.7208 H         1 SUB1        0.059
      6 H341       25.7403   -8.0861   43.7257 H         1 SUB1        0.210
      7 H351       24.5461  -10.1158   43.6135 H         1 SUB1        0.029
      8 H352       23.9747  -10.6383   41.9926 H         1 SUB1        0.029
      9 H361       22.8058   -8.3783   43.6963 H         1 SUB1        0.031
     10 H371       22.2041  -10.6106   44.5848 H         1 SUB1        0.027
     11 H372       21.6275  -11.1186   42.9612 H         1 SUB1        0.027
     12 H381       20.5048   -8.8755   44.6861 H         1 SUB1        0.027
     13 H382       19.7489  -10.4740   44.3700 H         1 SUB1        0.027
     14 H391       19.5097   -9.9148   41.9797 H         1 SUB1        0.031
     15 H401       20.7510   -7.2042   42.7690 H         1 SUB1        0.031
     16 H421       19.7274   -8.2077   40.0459 H         1 SUB1        0.027
     17 H422       20.4853   -6.6119   40.3711 H         1 SUB1        0.027
     18 H431       17.9662   -6.4670   40.2079 H         1 SUB1        0.025
     19 H432       18.5732   -5.9601   41.8207 H         1 SUB1        0.025
     20 H451       18.5549   -7.6471   43.7310 H         1 SUB1        0.029
     21 H461       17.4727   -9.5945   44.7393 H         1 SUB1        0.029
     22 H462       16.9607  -10.2061   43.1298 H         1 SUB1        0.029
     23 H471       16.0275   -7.7240   44.6366 H         1 SUB1        0.049
     24 H472       15.0823   -8.8300   43.5829 H         1 SUB1        0.049
     25 H501       16.5805   -8.4479   39.9198 H         1 SUB1        0.022
     26 H502       16.4110   -9.6583   41.2362 H         1 SUB1        0.022
     27 H503       17.9749   -9.4873   40.3691 H         1 SUB1        0.022
     28 H511       22.8148  -10.1548   40.3124 H         1 SUB1        0.023
     29 H512       21.3745   -9.2949   39.6702 H         1 SUB1        0.023
     30 H513       21.1815  -10.5336   40.9567 H         1 SUB1        0.023
     31 C1         22.9800   -7.5390   41.0900 C.3       1 SUB1       -0.045
     32 C2         24.3850   -8.1060   40.7770 C.3       1 SUB1       -0.026
     33 C3         25.0090   -8.7760   42.0230 C.3       1 SUB1        0.056
     34 O3         25.3520   -7.7130   42.9430 O.3       1 SUB1       -0.392
     35 C4         24.0890   -9.7800   42.6710 C.3       1 SUB1       -0.023
     36 C5         22.6790   -9.2060   42.9830 C.3       1 SUB1       -0.033
     37 C6         21.7460  -10.2660   43.6460 C.3       1 SUB1       -0.049
     38 C7         20.3830   -9.6810   43.9470 C.3       1 SUB1       -0.050
     39 C8         19.6740   -9.0990   42.6990 C.3       1 SUB1       -0.035
     40 C9         20.5900   -8.0130   42.0410 C.3       1 SUB1       -0.033
     41 C10        22.0060   -8.6220   41.6670 C.3       1 SUB1       -0.026
     42 C11        19.8580   -7.4110   40.7930 C.3       1 SUB1       -0.050
     43 C12        18.4480   -6.8110   41.1350 C.3       1 SUB1       -0.042
     44 C13        17.5610   -7.8710   41.8020 C.3       1 SUB1        0.035
     45 C14        18.3140   -8.4700   43.0420 C.3       1 SUB1       -0.026
     46 C15        17.1990   -9.3050   43.7140 C.3       1 SUB1       -0.035
     47 C16        16.0410   -8.3040   43.7020 C.3       1 SUB1        0.023
     48 C17        16.2940   -7.3780   42.5030 C.2       1 SUB1        0.133
     49 O17        15.6040   -6.4500   42.2020 O.2       1 SUB1       -0.332
     50 C18        17.0970   -8.9470   40.7530 C.3       1 SUB1       -0.054
     51 C19        21.8310   -9.7350   40.5690 C.3       1 SUB1       -0.059
@<TRIPOS>BOND
     1   31    1 1  
     2   31    2 1  
     3   32    3 1  
     4   32    4 1  
     5   33    5 1  
     6   34    6 1  
     7   35    7 1  
     8   35    8 1  
     9   36    9 1  
    10   37   10 1  
    11   37   11 1  
    12   38   12 1  
    13   38   13 1  
    14   39   14 1  
    15   40   15 1  
    16   42   16 1  
    17   42   17 1  
    18   43   18 1  
    19   43   19 1  
    20   45   20 1  
    21   46   21 1  
    22   46   22 1  
    23   47   23 1  
    24   47   24 1  
    25   50   25 1  
    26   50   26 1  
    27   50   27 1  
    28   51   28 1  
    29   51   29 1  
    30   51   30 1  
    31   31   32 1  
    32   41   31 1  
    33   32   33 1  
    34   33   34 1  
    35   35   33 1  
    36   36   35 1  
    37   37   36 1  
    38   41   36 1  
    39   38   37 1  
    40   39   38 1  
    41   39   40 1  
    42   45   39 1  
    43   40   41 1  
    44   40   42 1  
    45   41   51 1  
    46   43   42 1  
    47   44   43 1  
    48   45   44 1  
    49   44   48 1  
    50   44   50 1  
    51   46   45 1  
    52   46   47 1  
    53   47   48 1  
    54   48   49 2  
@<TRIPOS>SUBSTRUCTURE
     1 SUB1        1 GROUP

