### 
### Created by X-TOOL on Mon Oct 24 22:40:27 2005
### 

@<TRIPOS>MOLECULE
1b9j_ligand
   66    65     1     0     0
SMALL
GAST_HUCK


@<TRIPOS>ATOM
      1 N           6.9680   16.5180   15.1370 N.4       1 SUB1        0.238
      2 CA          6.4590   17.7920   14.5610 C.3       1 SUB1        0.065
      3 C           5.2330   18.2580   15.3170 C.2       1 SUB1        0.227
      4 O           4.5010   17.4540   15.8810 O.2       1 SUB1       -0.391
      5 CB          6.2740   17.7080   13.0310 C.3       1 SUB1        0.008
      6 CG          5.3660   16.5370   12.6220 C.3       1 SUB1       -0.041
      7 CD          5.2460   16.4740   11.0950 C.3       1 SUB1       -0.012
      8 CE          6.5240   15.8850   10.4800 C.3       1 SUB1       -0.035
      9 NZ          6.6860   14.4660   10.9100 N.4       1 SUB1        0.219
     10 N           5.0010   19.5670   15.3040 N.am      1 SUB1       -0.261
     11 CA          3.9000   20.1550   16.0690 C.3       1 SUB1        0.132
     12 C           2.5980   20.1540   15.2880 C.2       1 SUB1        0.205
     13 O           2.5550   20.4520   14.1020 O.2       1 SUB1       -0.394
     14 CB          4.2860   21.6050   16.4320 C.3       1 SUB1       -0.010
     15 CG          5.2310   21.6380   17.6610 C.3       1 SUB1       -0.043
     16 CD1         6.6620   21.3850   17.2120 C.3       1 SUB1       -0.062
     17 CD2         5.1140   22.9610   18.3830 C.3       1 SUB1       -0.062
     18 N           1.5100   19.7250   15.9380 N.am      1 SUB1       -0.268
     19 CA          0.2260   19.7150   15.2460 C.3       1 SUB1        0.081
     20 C          -0.7570   20.6010   16.0220 C.2       1 SUB1        0.053
     21 O          -1.7670   20.9340   15.3740 O.co2     1 SUB1       -0.564
     22 CB         -0.3840   18.3050   15.1970 C.3       1 SUB1       -0.018
     23 CG         -1.4300   18.2580   14.0720 C.3       1 SUB1       -0.043
     24 CD         -2.1520   16.9300   14.0720 C.3       1 SUB1       -0.012
     25 CE         -3.3970   16.9820   13.1820 C.3       1 SUB1       -0.035
     26 NZ         -2.9390   16.8030   11.7770 N.4       1 SUB1        0.219
     27 OXT        -0.4940   20.9340   17.1970 O.co2     1 SUB1       -0.564
     28 H11         6.3534   16.2141   15.8759 H         1 SUB1        0.201
     29 H21         7.2360   18.5517   14.7315 H         1 SUB1        0.110
     30 H51         7.2595   17.5734   12.5613 H         1 SUB1        0.035
     31 H52         5.8238   18.6468   12.6760 H         1 SUB1        0.035
     32 H61         4.3672   16.6804   13.0601 H         1 SUB1        0.027
     33 H62         5.7971   15.5953   12.9926 H         1 SUB1        0.027
     34 H71         5.0895   17.4893   10.7018 H         1 SUB1        0.032
     35 H72         4.3886   15.8401   10.8249 H         1 SUB1        0.032
     36 H81         7.3933   16.4694   10.8156 H         1 SUB1        0.081
     37 H82         6.4545   15.9282    9.3831 H         1 SUB1        0.081
     38 H91         6.7604   14.4257   11.9144 H         1 SUB1        0.199
     39 H92         7.5210   14.0825   10.4956 H         1 SUB1        0.199
     40 H93         5.8861   13.9307   10.6106 H         1 SUB1        0.199
     41 H101        5.5915   20.1630   14.7598 H         1 SUB1        0.188
     42 H111        3.7565   19.5733   16.9915 H         1 SUB1        0.080
     43 H141        3.3730   22.1726   16.6651 H         1 SUB1        0.032
     44 H142        4.7959   22.0670   15.5738 H         1 SUB1        0.032
     45 H151        4.9349   20.8371   18.3544 H         1 SUB1        0.030
     46 H161        6.7278   20.3946   16.7378 H         1 SUB1        0.023
     47 H162        7.3314   21.4191   18.0842 H         1 SUB1        0.023
     48 H163        6.9617   22.1582   16.4893 H         1 SUB1        0.023
     49 H171        5.3985   23.7767   17.7021 H         1 SUB1        0.023
     50 H172        5.7827   22.9625   19.2564 H         1 SUB1        0.023
     51 H173        4.0757   23.1065   18.7159 H         1 SUB1        0.023
     52 H181        1.5763   19.4151   16.8864 H         1 SUB1        0.190
     53 H191        0.3597   20.0972   14.2232 H         1 SUB1        0.078
     54 H221       -0.8653   18.0765   16.1593 H         1 SUB1        0.032
     55 H222        0.4067   17.5666   14.9981 H         1 SUB1        0.032
     56 H231       -0.9262   18.3955   13.1039 H         1 SUB1        0.027
     57 H232       -2.1603   19.0666   14.2233 H         1 SUB1        0.027
     58 H241       -2.4553   16.6855   15.1007 H         1 SUB1        0.032
     59 H242       -1.4727   16.1512   13.6951 H         1 SUB1        0.032
     60 H251       -3.9003   17.9537   13.2938 H         1 SUB1        0.081
     61 H252       -4.0920   16.1752   13.4579 H         1 SUB1        0.081
     62 H261       -2.3060   17.5483   11.5324 H         1 SUB1        0.199
     63 H262       -3.7351   16.8220   11.1590 H         1 SUB1        0.199
     64 H263       -2.4658   15.9175   11.6881 H         1 SUB1        0.199
     65 H12         7.8937   16.6633   15.5085 H         1 SUB1        0.201
     66 H13         7.0017   15.8134   14.4169 H         1 SUB1        0.201
@<TRIPOS>BOND
     1    2    1 1  
     2    2    5 1  
     3    3    2 1  
     4    3    4 2  
     5    5    6 1  
     6    6    7 1  
     7    7    8 1  
     8    8    9 1  
     9   11   10 1  
    10   11   14 1  
    11   12   11 1  
    12   12   13 2  
    13   14   15 1  
    14   15   16 1  
    15   15   17 1  
    16   10    3 am 
    17   18   19 1  
    18   19   22 1  
    19   19   20 1  
    20   20   21 2  
    21   20   27 2  
    22   22   23 1  
    23   23   24 1  
    24   24   25 1  
    25   25   26 1  
    26   12   18 am 
    27    1   28 1  
    28    2   29 1  
    29    5   30 1  
    30    5   31 1  
    31    6   32 1  
    32    6   33 1  
    33    7   34 1  
    34    7   35 1  
    35    8   36 1  
    36    8   37 1  
    37    9   38 1  
    38    9   39 1  
    39    9   40 1  
    40   10   41 1  
    41   11   42 1  
    42   14   43 1  
    43   14   44 1  
    44   15   45 1  
    45   16   46 1  
    46   16   47 1  
    47   16   48 1  
    48   17   49 1  
    49   17   50 1  
    50   17   51 1  
    51   18   52 1  
    52   19   53 1  
    53   22   54 1  
    54   22   55 1  
    55   23   56 1  
    56   23   57 1  
    57   24   58 1  
    58   24   59 1  
    59   25   60 1  
    60   25   61 1  
    61   26   62 1  
    62   26   63 1  
    63   26   64 1  
    64    1   65 1  
    65    1   66 1  
@<TRIPOS>SUBSTRUCTURE
     1 SUB1        1 GROUP

