1b9j_ligand
  -I-interpret- 

 66 65  0  0  0  0  0  0  0  0999 V2000
    6.9680   16.5180   15.1370 N   0  3  0  0  0
    6.4590   17.7920   14.5610 C   0  0  0  0  0
    5.2330   18.2580   15.3170 C   0  0  0  0  0
    4.5010   17.4540   15.8810 O   0  0  0  0  0
    6.2740   17.7080   13.0310 C   0  0  0  0  0
    5.3660   16.5370   12.6220 C   0  0  0  0  0
    5.2460   16.4740   11.0950 C   0  0  0  0  0
    6.5240   15.8850   10.4800 C   0  0  0  0  0
    6.6860   14.4660   10.9100 N   0  3  0  0  0
    5.0010   19.5670   15.3040 N   0  0  0  0  0
    3.9000   20.1550   16.0690 C   0  0  0  0  0
    2.5980   20.1540   15.2880 C   0  0  0  0  0
    2.5550   20.4520   14.1020 O   0  0  0  0  0
    4.2860   21.6050   16.4320 C   0  0  0  0  0
    5.2310   21.6380   17.6610 C   0  0  0  0  0
    6.6620   21.3850   17.2120 C   0  0  0  0  0
    5.1140   22.9610   18.3830 C   0  0  0  0  0
    1.5100   19.7250   15.9380 N   0  0  0  0  0
    0.2260   19.7150   15.2460 C   0  0  0  0  0
   -0.7570   20.6010   16.0220 C   0  0  0  0  0
   -1.7670   20.9340   15.3740 O   0  0  0  0  0
   -0.3840   18.3050   15.1970 C   0  0  0  0  0
   -1.4300   18.2580   14.0720 C   0  0  0  0  0
   -2.1520   16.9300   14.0720 C   0  0  0  0  0
   -3.3970   16.9820   13.1820 C   0  0  0  0  0
   -2.9390   16.8030   11.7770 N   0  3  0  0  0
   -0.4940   20.9340   17.1970 O   0  5  0  0  0
    6.3534   16.2141   15.8759 H   0  0  0  0  0
    7.2360   18.5517   14.7315 H   0  0  0  0  0
    7.2595   17.5734   12.5613 H   0  0  0  0  0
    5.8238   18.6468   12.6760 H   0  0  0  0  0
    4.3672   16.6804   13.0601 H   0  0  0  0  0
    5.7971   15.5953   12.9926 H   0  0  0  0  0
    5.0895   17.4893   10.7018 H   0  0  0  0  0
    4.3886   15.8401   10.8249 H   0  0  0  0  0
    7.3933   16.4694   10.8156 H   0  0  0  0  0
    6.4545   15.9282    9.3831 H   0  0  0  0  0
    6.7604   14.4257   11.9144 H   0  0  0  0  0
    7.5210   14.0825   10.4956 H   0  0  0  0  0
    5.8861   13.9307   10.6106 H   0  0  0  0  0
    5.5915   20.1630   14.7598 H   0  0  0  0  0
    3.7565   19.5733   16.9915 H   0  0  0  0  0
    3.3730   22.1726   16.6651 H   0  0  0  0  0
    4.7959   22.0670   15.5738 H   0  0  0  0  0
    4.9349   20.8371   18.3544 H   0  0  0  0  0
    6.7278   20.3946   16.7378 H   0  0  0  0  0
    7.3314   21.4191   18.0842 H   0  0  0  0  0
    6.9617   22.1582   16.4893 H   0  0  0  0  0
    5.3985   23.7767   17.7021 H   0  0  0  0  0
    5.7827   22.9625   19.2564 H   0  0  0  0  0
    4.0757   23.1065   18.7159 H   0  0  0  0  0
    1.5763   19.4151   16.8864 H   0  0  0  0  0
    0.3597   20.0972   14.2232 H   0  0  0  0  0
   -0.8653   18.0765   16.1593 H   0  0  0  0  0
    0.4067   17.5666   14.9981 H   0  0  0  0  0
   -0.9262   18.3955   13.1039 H   0  0  0  0  0
   -2.1603   19.0666   14.2233 H   0  0  0  0  0
   -2.4553   16.6855   15.1007 H   0  0  0  0  0
   -1.4727   16.1512   13.6951 H   0  0  0  0  0
   -3.9003   17.9537   13.2938 H   0  0  0  0  0
   -4.0920   16.1752   13.4579 H   0  0  0  0  0
   -2.3060   17.5483   11.5324 H   0  0  0  0  0
   -3.7351   16.8220   11.1590 H   0  0  0  0  0
   -2.4658   15.9175   11.6881 H   0  0  0  0  0
    7.8937   16.6633   15.5085 H   0  0  0  0  0
    7.0017   15.8134   14.4169 H   0  0  0  0  0
  2  1  1  0  0  0
  2  5  1  0  0  0
  3  2  1  0  0  0
  3  4  2  0  0  0
  5  6  1  0  0  0
  6  7  1  0  0  0
  7  8  1  0  0  0
  8  9  1  0  0  0
 11 10  1  0  0  0
 11 14  1  0  0  0
 12 11  1  0  0  0
 12 13  2  0  0  0
 14 15  1  0  0  0
 15 16  1  0  0  0
 15 17  1  0  0  0
 10  3  1  0  0  0
 18 19  1  0  0  0
 19 22  1  0  0  0
 19 20  1  0  0  0
 20 21  2  0  0  0
 20 27  1  0  0  0
 22 23  1  0  0  0
 23 24  1  0  0  0
 24 25  1  0  0  0
 25 26  1  0  0  0
 12 18  1  0  0  0
  1 28  1  0  0  0
  2 29  1  0  0  0
  5 30  1  0  0  0
  5 31  1  0  0  0
  6 32  1  0  0  0
  6 33  1  0  0  0
  7 34  1  0  0  0
  7 35  1  0  0  0
  8 36  1  0  0  0
  8 37  1  0  0  0
  9 38  1  0  0  0
  9 39  1  0  0  0
  9 40  1  0  0  0
 10 41  1  0  0  0
 11 42  1  0  0  0
 14 43  1  0  0  0
 14 44  1  0  0  0
 15 45  1  0  0  0
 16 46  1  0  0  0
 16 47  1  0  0  0
 16 48  1  0  0  0
 17 49  1  0  0  0
 17 50  1  0  0  0
 17 51  1  0  0  0
 18 52  1  0  0  0
 19 53  1  0  0  0
 22 54  1  0  0  0
 22 55  1  0  0  0
 23 56  1  0  0  0
 23 57  1  0  0  0
 24 58  1  0  0  0
 24 59  1  0  0  0
 25 60  1  0  0  0
 25 61  1  0  0  0
 26 62  1  0  0  0
 26 63  1  0  0  0
 26 64  1  0  0  0
  1 65  1  0  0  0
  1 66  1  0  0  0
M  END
$$$$
