### 
### Created by X-TOOL on Mon Oct 24 22:00:45 2005
### 

@<TRIPOS>MOLECULE
1o0f_ligand
   38    40     1     0     0
SMALL
GAST_HUCK


@<TRIPOS>ATOM
      1 P1         41.2350    6.2550   14.4910 P.3       1 SUB1        0.206
      2 O1P        40.2730    6.5200   13.3460 O.co2     1 SUB1       -0.535
      3 O2P        42.0870    5.0150   14.2710 O.co2     1 SUB1       -0.535
      4 O3P        42.0660    7.4750   14.8500 O.co2     1 SUB1       -0.535
      5 P2         36.3990    3.1920   13.2220 P.3       1 SUB1        0.205
      6 O4P        34.9040    3.4250   13.3170 O.co2     1 SUB1       -0.535
      7 O5P        37.0620    3.9030   12.0590 O.co2     1 SUB1       -0.535
      8 O6P        36.7820    1.7250   13.3210 O.co2     1 SUB1       -0.535
      9 O5         37.0120    3.8560   14.5760 O.3       1 SUB1       -0.320
     10 C5         36.8490    5.2540   14.8460 C.3       1 SUB1        0.095
     11 C4         37.9140    5.7230   15.8040 C.3       1 SUB1        0.121
     12 O4         37.4580    5.5380   17.1740 O.3       1 SUB1       -0.344
     13 C3         39.2600    5.0060   15.6940 C.3       1 SUB1        0.135
     14 O3         40.3250    5.9480   15.7870 O.3       1 SUB1       -0.314
     15 C2         39.2520    4.0720   16.9040 C.3       1 SUB1        0.134
     16 O2         40.5480    3.7810   17.3870 O.3       1 SUB1       -0.384
     17 C1         38.4750    4.9070   17.9190 C.3       1 SUB1        0.172
     18 N9         37.8650    4.1610   19.0230 N.ar      1 SUB1       -0.260
     19 C8         38.1130    2.8680   19.4250 C.ar      1 SUB1        0.142
     20 N7         37.4410    2.5070   20.4910 N.ar      1 SUB1       -0.172
     21 C5         36.6900    3.6320   20.8080 C.ar      1 SUB1        0.238
     22 C6         35.7800    3.9010   21.8480 C.ar      1 SUB1        0.257
     23 N6         35.4630    3.0220   22.8050 N.pl3     1 SUB1       -0.255
     24 N1         35.2020    5.1240   21.8760 N.ar      1 SUB1       -0.126
     25 C2         35.5270    6.0070   20.9220 C.ar      1 SUB1        0.199
     26 N3         36.3730    5.8730   19.9000 N.ar      1 SUB1       -0.126
     27 C4         36.9290    4.6510   19.9020 C.ar      1 SUB1        0.229
     28 H101       35.8579    5.4257   15.2911 H         1 SUB1        0.064
     29 H102       36.9313    5.8184   13.9055 H         1 SUB1        0.064
     30 H111       38.0799    6.7942   15.6168 H         1 SUB1        0.065
     31 H131       39.3401    4.4413   14.7534 H         1 SUB1        0.070
     32 H151       38.7321    3.1306   16.6727 H         1 SUB1        0.067
     33 H161       40.9760    4.5879   17.6480 H         1 SUB1        0.210
     34 H171       39.1516    5.6597   18.3499 H         1 SUB1        0.088
     35 H191       38.8008    2.2090   18.9076 H         1 SUB1        0.118
     36 H231       34.7887    3.2809   23.5392 H         1 SUB1        0.235
     37 H232       35.8932    2.0862   22.8077 H         1 SUB1        0.235
     38 H251       35.0309    6.9684   20.9909 H         1 SUB1        0.164
@<TRIPOS>BOND
     1    1    2 2  
     2    1    3 2  
     3    1    4 2  
     4   14    1 1  
     5    5    6 2  
     6    5    7 2  
     7    5    8 2  
     8    9    5 1  
     9   10    9 1  
    10   11   10 1  
    11   11   12 1  
    12   13   11 1  
    13   12   17 1  
    14   13   14 1  
    15   13   15 1  
    16   15   16 1  
    17   15   17 1  
    18   17   18 1  
    19   18   19 ar 
    20   18   27 ar 
    21   19   20 ar 
    22   20   21 ar 
    23   21   22 ar 
    24   21   27 ar 
    25   22   23 1  
    26   22   24 ar 
    27   24   25 ar 
    28   25   26 ar 
    29   26   27 ar 
    30   10   28 1  
    31   10   29 1  
    32   11   30 1  
    33   13   31 1  
    34   15   32 1  
    35   16   33 1  
    36   17   34 1  
    37   19   35 1  
    38   23   36 1  
    39   23   37 1  
    40   25   38 1  
@<TRIPOS>SUBSTRUCTURE
     1 SUB1        1 GROUP

