### 
### Created by X-TOOL on Sun Jun  3 11:17:44 2007
### 

@<TRIPOS>MOLECULE
2c3j_ligand
   30    32     1     0     0
SMALL
GAST_HUCK


@<TRIPOS>ATOM
      1 O1          3.8910   -1.6130   20.6180 O.2       1 SUB1       -0.395
      2 C5          4.6820   -2.1690   19.8560 C.2       1 SUB1        0.214
      3 N2          5.8350   -1.5040   19.6480 N.am      1 SUB1       -0.287
      4 C6          6.9320   -1.9230   18.7260 C.3       1 SUB1        0.037
      5 C7          7.2570   -3.4210   18.7060 C.3       1 SUB1       -0.008
      6 C4          4.2260   -3.4420   19.1550 C.2       1 SUB1        0.129
      7 N1          2.9680   -3.8670   19.2840 N.pl3     1 SUB1       -0.279
      8 C1          2.8680   -4.9560   18.5270 C.2       1 SUB1        0.022
      9 C2          4.0210   -5.1950   17.9190 C.2       1 SUB1       -0.067
     10 C3          4.9030   -4.2910   18.2760 C.2       1 SUB1       -0.024
     11 C8          6.2330   -4.1570   17.8520 C.2       1 SUB1       -0.026
     12 C9          6.6440   -4.6530   16.5770 C.2       1 SUB1        0.108
     13 N4          5.8280   -5.0760   15.5920 N.pl3     1 SUB1       -0.249
     14 C11         6.5780   -5.4850   14.5490 C.cat     1 SUB1        0.344
     15 N5          6.0800   -5.9690   13.3800 N.pl3     1 SUB1       -0.212
     16 N3          7.8860   -5.3230   14.8290 N.am      1 SUB1       -0.218
     17 C10         7.9630   -4.7940   16.0580 C.2       1 SUB1        0.228
     18 O2          9.0500   -4.4800   16.5640 O.2       1 SUB1       -0.349
     19 H           5.9707   -0.6364   20.1670 H         1 SUB1        0.183
     20 H           7.8336   -1.4186   19.0736 H         1 SUB1        0.054
     21 H           6.6002   -1.6681   17.7195 H         1 SUB1        0.054
     22 H           7.2263   -3.8110   19.7234 H         1 SUB1        0.041
     23 H           8.2517   -3.5694   18.2856 H         1 SUB1        0.041
     24 H           2.2321   -3.4428   19.8487 H         1 SUB1        0.235
     25 H           1.9689   -5.5633   18.4220 H         1 SUB1        0.089
     26 H           4.2083   -6.0169   17.2279 H         1 SUB1        0.031
     27 H           4.8087   -5.0853   15.6293 H         1 SUB1        0.178
     28 H           5.0714   -6.0423   13.2468 H         1 SUB1        0.483
     29 H           6.7150   -6.2587   12.6362 H         1 SUB1        0.483
     30 H           8.6698   -5.5586   14.2203 H         1 SUB1        0.161
@<TRIPOS>BOND
     1    1    2 2  
     2    2    3 am 
     3    2    6 1  
     4    3    4 1  
     5    4    5 1  
     6    5   11 1  
     7    6    7 1  
     8    6   10 2  
     9    7    8 1  
    10    8    9 2  
    11    9   10 1  
    12   10   11 1  
    13   11   12 2  
    14   12   13 1  
    15   12   17 1  
    16   13   14 1  
    17   14   15 1  
    18   14   16 am 
    19   16   17 am 
    20   17   18 2  
    21    3   19 1  
    22    4   20 1  
    23    4   21 1  
    24    5   22 1  
    25    5   23 1  
    26    7   24 1  
    27    8   25 1  
    28    9   26 1  
    29   13   27 1  
    30   15   28 1  
    31   15   29 1  
    32   16   30 1  
@<TRIPOS>SUBSTRUCTURE
     1 SUB1        1 GROUP

