### 
### Created by X-TOOL on Sun Jun  3 11:28:40 2007
### 

@<TRIPOS>MOLECULE
2h5a_ligand
   23    23     1     0     0
SMALL
GAST_HUCK


@<TRIPOS>ATOM
      1 C1        -48.2460  -14.0200   16.3590 C.3       1 SUB1        0.223
      2 O1        -46.9950  -13.3260   16.4110 O.3       1 SUB1       -0.182
      3 P         -46.3920  -12.7730   17.8010 P.3       1 SUB1        0.618
      4 O1P       -46.0910  -13.9640   18.6810 O.2       1 SUB1       -0.214
      5 O2P       -47.3990  -11.8500   18.4640 O.2       1 SUB1       -0.214
      6 O3P       -45.1440  -12.0070   17.4500 O.2       1 SUB1       -0.214
      7 C2        -48.0590  -15.5440   16.2730 C.3       1 SUB1        0.139
      8 O2        -47.3920  -16.0550   17.4250 O.3       1 SUB1       -0.384
      9 C3        -47.2970  -15.9240   14.9990 C.3       1 SUB1        0.114
     10 O3        -47.0740  -17.3330   14.9660 O.3       1 SUB1       -0.386
     11 C4        -48.1030  -15.4140   13.7980 C.3       1 SUB1        0.107
     12 O4        -47.4240  -15.6170   12.5630 O.3       1 SUB1       -0.387
     13 C5        -48.3440  -13.9090   13.9610 C.3       1 SUB1        0.079
     14 O5        -48.9850  -13.5800   15.2080 O.3       1 SUB1       -0.343
     15 H         -48.7855  -13.7958   17.2792 H         1 SUB1        0.099
     16 H         -49.0501  -15.9960   16.2349 H         1 SUB1        0.067
     17 H         -46.5267  -15.6461   17.5001 H         1 SUB1        0.210
     18 H         -46.3107  -15.4608   14.9703 H         1 SUB1        0.065
     19 H         -46.5578  -17.5922   15.7327 H         1 SUB1        0.210
     20 H         -49.0376  -15.9743   13.7736 H         1 SUB1        0.064
     21 H         -47.9647  -15.2835   11.8433 H         1 SUB1        0.210
     22 H         -48.9996  -13.5858   13.1524 H         1 SUB1        0.059
     23 H         -47.3746  -13.4110   13.9417 H         1 SUB1        0.059
@<TRIPOS>BOND
     1    1    2 1  
     2    1    7 1  
     3    1   14 1  
     4    2    3 1  
     5    3    4 2  
     6    3    5 2  
     7    3    6 2  
     8    7    8 1  
     9    7    9 1  
    10    9   10 1  
    11    9   11 1  
    12   11   12 1  
    13   11   13 1  
    14   13   14 1  
    15    1   15 1  
    16    7   16 1  
    17    8   17 1  
    18    9   18 1  
    19   10   19 1  
    20   11   20 1  
    21   12   21 1  
    22   13   22 1  
    23   13   23 1  
@<TRIPOS>SUBSTRUCTURE
     1 SUB1        1 GROUP

