1cim_ligand
  -I-interpret- 

 30 31  0  0  0  0  0  0  0  0999 V2000
   -6.1700    3.6520   15.4750 S   0  0  0  0  0
   -5.3260    2.2020   15.6860 C   0  0  0  0  0
   -3.9990    2.2880   15.2110 C   0  0  0  0  0
   -3.7300    3.5680   14.6270 C   0  0  0  0  0
   -2.4180    3.9510   13.9900 C   0  0  0  0  0
   -2.3160    5.4870   13.7360 C   0  0  0  0  0
   -3.5540    6.0630   13.0530 C   0  0  0  0  0
   -4.8950    6.0150   14.2140 S   0  0  0  0  0
   -4.8820    4.3900   14.6570 C   0  0  0  0  0
   -5.8890    0.9210   16.7120 S   0  0  0  0  0
   -7.3130    0.7920   16.6570 O   0  0  0  0  0
   -5.3050    1.0540   18.0130 O   0  0  0  0  0
   -5.2850   -0.5820   16.0930 N   0  0  0  0  0
   -2.2350    3.2710   12.6770 N   0  3  0  0  0
   -3.4120    7.5370   12.6810 C   0  0  0  0  0
   -6.0970    6.3500   13.4880 O   0  0  0  0  0
   -4.5140    6.8310   15.3300 O   0  0  0  0  0
   -3.2706    1.4814   15.2801 H   0  0  0  0  0
   -1.6068    3.6473   14.6680 H   0  0  0  0  0
   -1.4418    5.6791   13.0966 H   0  0  0  0  0
   -2.1816    5.9939   14.7029 H   0  0  0  0  0
   -3.7852    5.4694   12.1562 H   0  0  0  0  0
   -5.5092   -1.4463   16.5608 H   0  0  0  0  0
   -2.2952    2.2729   12.8043 H   0  0  0  0  0
   -1.3309    3.5075   12.2992 H   0  0  0  0  0
   -2.9550    3.5724   12.0392 H   0  0  0  0  0
   -2.5927    7.6550   11.9566 H   0  0  0  0  0
   -3.1897    8.1235   13.5847 H   0  0  0  0  0
   -4.3512    7.8944   12.2337 H   0  0  0  0  0
   -4.7142   -0.5913   15.2719 H   0  0  0  0  0
  1  9  1  0  0  0
  1  2  1  0  0  0
  2 10  1  0  0  0
  2  3  2  0  0  0
  3  4  1  0  0  0
  4  9  2  0  0  0
  4  5  1  0  0  0
  5 14  1  0  0  0
  5  6  1  0  0  0
  6  7  1  0  0  0
  7 15  1  0  0  0
  7  8  1  0  0  0
  8 17  2  0  0  0
  8 16  2  0  0  0
  8  9  1  0  0  0
 10 13  1  0  0  0
 10 12  2  0  0  0
 10 11  2  0  0  0
  3 18  1  0  0  0
  5 19  1  0  0  0
  6 20  1  0  0  0
  6 21  1  0  0  0
  7 22  1  0  0  0
 13 23  1  0  0  0
 14 24  1  0  0  0
 14 25  1  0  0  0
 14 26  1  0  0  0
 15 27  1  0  0  0
 15 28  1  0  0  0
 15 29  1  0  0  0
 13 30  1  0  0  0
M  END
$$$$
