1e66_ligand
  -I-interpret- 

 40 43  0  0  0  0  0  0  0  0999 V2000
    1.2028   69.1298   65.7590 H   0  0  0  0  0
    1.5695   69.6691   67.4196 H   0  0  0  0  0
    7.6775   70.2725   67.0340 H   0  0  0  0  0
    6.4727   68.2474   63.1091 H   0  0  0  0  0
    5.6802   69.6992   62.4084 H   0  0  0  0  0
    4.8969   67.7164   61.2231 H   0  0  0  0  0
    4.9969   65.6172   62.7632 H   0  0  0  0  0
    2.1651   67.2019   65.2411 H   0  0  0  0  0
    1.3572   66.8943   63.6665 H   0  0  0  0  0
    4.1964   62.6724   64.6552 H   0  0  0  0  0
    5.3658   64.0208   64.4536 H   0  0  0  0  0
    4.4132   63.4401   63.0458 H   0  0  0  0  0
    1.7180   69.2297   63.7321 H   0  0  0  0  0
    2.4806   67.9812   61.5813 H   0  0  0  0  0
    3.2697   69.5769   61.8220 H   0  0  0  0  0
    2.8875   70.3199   68.8120 H   0  0  0  0  0
    4.7042   70.9058   70.2968 H   0  0  0  0  0
    2.3299   64.1774   64.1514 H   0  0  0  0  0
    3.2826   64.7582   65.5592 H   0  0  0  0  0
    5.9600   69.5810   65.3090 N   0  0  0  0  0
    1.8860   69.4300   66.4690 N   0  0  0  0  0
    6.3780   70.6350   68.8450 C   0  0  0  0  0
    6.6700   70.2770   67.4340 C   0  0  0  0  0
    5.5690   69.9500   66.6660 C   0  0  0  0  0
    4.9750   69.1980   64.4700 C   0  0  0  0  0
    5.5190   68.7840   62.9970 C   0  0  0  0  0
    4.5270   67.8800   62.2460 C   0  0  0  0  0
    4.2820   66.4050   62.9960 C   0  0  0  0  0
    3.3050   66.0890   63.8490 C   0  0  0  0  0
    2.3030   67.1800   64.1500 C   0  0  0  0  0
    4.3940   63.6190   64.1310 C   0  0  0  0  0
    2.6210   68.6020   63.7090 C   0  0  0  0  0
    3.1710   68.5550   62.2170 C   0  0  0  0  0
    3.6230   69.1100   64.7520 C   0  0  0  0  0
    3.2280   69.5120   66.1460 C   0  0  0  0  0
    4.2480   69.9120   67.0430 C   0  0  0  0  0
    3.9130   70.3030   68.4610 C   0  0  0  0  0
    4.9340   70.6300   69.2740 C   0  0  0  0  0
    3.2790   64.6360   64.4660 C   0  0  0  0  0
    7.5600   70.9960   69.9590 Cl  0  0  0  0  0
 21  1  1  0  0  0
 21  2  1  0  0  0
 23  3  1  0  0  0
 26  4  1  0  0  0
 26  5  1  0  0  0
 27  6  1  0  0  0
 28  7  1  0  0  0
 30  8  1  0  0  0
 30  9  1  0  0  0
 31 10  1  0  0  0
 31 11  1  0  0  0
 31 12  1  0  0  0
 32 13  1  0  0  0
 33 14  1  0  0  0
 33 15  1  0  0  0
 37 16  1  0  0  0
 38 17  1  0  0  0
 39 18  1  0  0  0
 39 19  1  0  0  0
 20 24  4  0  0  0
 25 20  4  0  0  0
 34 25  4  0  0  0
 26 25  1  0  0  0
 27 26  1  0  0  0
 27 33  1  0  0  0
 28 27  1  0  0  0
 29 28  2  0  0  0
 39 29  1  0  0  0
 29 30  1  0  0  0
 30 32  1  0  0  0
 32 34  1  0  0  0
 32 33  1  0  0  0
 34 35  4  0  0  0
 35 21  1  0  0  0
 35 36  4  0  0  0
 36 37  4  0  0  0
 36 24  4  0  0  0
 24 23  4  0  0  0
 23 22  4  0  0  0
 38 22  4  0  0  0
 37 38  4  0  0  0
 39 31  1  0  0  0
 22 40  1  0  0  0
M  END
$$$$
