### 
### Created by X-TOOL on Tue Oct 25 00:57:24 2005
### 

@<TRIPOS>MOLECULE
1e66_ligand
   40    43     1     0     0
SMALL
GAST_HUCK


@<TRIPOS>ATOM
      1 H211        1.2028   69.1298   65.7590 H         1 SUB1        0.178
      2 H212        1.5695   69.6691   67.4196 H         1 SUB1        0.178
      3 H231        7.6775   70.2725   67.0340 H         1 SUB1        0.060
      4 H261        6.4727   68.2474   63.1091 H         1 SUB1        0.047
      5 H262        5.6802   69.6992   62.4084 H         1 SUB1        0.047
      6 H271        4.8969   67.7164   61.2231 H         1 SUB1        0.040
      7 H281        4.9969   65.6172   62.7632 H         1 SUB1        0.025
      8 H301        2.1651   67.2019   65.2411 H         1 SUB1        0.043
      9 H302        1.3572   66.8943   63.6665 H         1 SUB1        0.043
     10 H311        4.1964   62.6724   64.6552 H         1 SUB1        0.025
     11 H312        5.3658   64.0208   64.4536 H         1 SUB1        0.025
     12 H313        4.4132   63.4401   63.0458 H         1 SUB1        0.025
     13 H321        1.7180   69.2297   63.7321 H         1 SUB1        0.044
     14 H331        2.4806   67.9812   61.5813 H         1 SUB1        0.031
     15 H332        3.2697   69.5769   61.8220 H         1 SUB1        0.031
     16 H371        2.8875   70.3199   68.8120 H         1 SUB1        0.064
     17 H381        4.7042   70.9058   70.2968 H         1 SUB1        0.059
     18 H391        2.3299   64.1774   64.1514 H         1 SUB1        0.041
     19 H392        3.2826   64.7582   65.5592 H         1 SUB1        0.041
     20 N1          5.9600   69.5810   65.3090 N.ar      1 SUB1       -0.328
     21 N2          1.8860   69.4300   66.4690 N.pl3     1 SUB1       -0.328
     22 C1          6.3780   70.6350   68.8450 C.ar      1 SUB1        0.038
     23 C2          6.6700   70.2770   67.4340 C.ar      1 SUB1       -0.038
     24 C3          5.5690   69.9500   66.6660 C.ar      1 SUB1        0.018
     25 C4          4.9750   69.1980   64.4700 C.ar      1 SUB1        0.012
     26 C5          5.5190   68.7840   62.9970 C.3       1 SUB1       -0.002
     27 C6          4.5270   67.8800   62.2460 C.3       1 SUB1       -0.022
     28 C7          4.2820   66.4050   62.9960 C.2       1 SUB1       -0.103
     29 C8          3.3050   66.0890   63.8490 C.2       1 SUB1       -0.079
     30 C9          2.3030   67.1800   64.1500 C.3       1 SUB1       -0.018
     31 C10         4.3940   63.6190   64.1310 C.3       1 SUB1       -0.057
     32 C11         2.6210   68.6020   63.7090 C.3       1 SUB1        0.001
     33 C12         3.1710   68.5550   62.2170 C.3       1 SUB1       -0.033
     34 C13         3.6230   69.1100   64.7520 C.ar      1 SUB1        0.010
     35 C14         3.2280   69.5120   66.1460 C.ar      1 SUB1        0.067
     36 C15         4.2480   69.9120   67.0430 C.ar      1 SUB1        0.020
     37 C16         3.9130   70.3030   68.4610 C.ar      1 SUB1       -0.052
     38 C17         4.9340   70.6300   69.2740 C.ar      1 SUB1       -0.049
     39 C18         3.2790   64.6360   64.4660 C.3       1 SUB1       -0.031
     40 CL1         7.5600   70.9960   69.9590 Cl        1 SUB1       -0.070
@<TRIPOS>BOND
     1   21    1 1  
     2   21    2 1  
     3   23    3 1  
     4   26    4 1  
     5   26    5 1  
     6   27    6 1  
     7   28    7 1  
     8   30    8 1  
     9   30    9 1  
    10   31   10 1  
    11   31   11 1  
    12   31   12 1  
    13   32   13 1  
    14   33   14 1  
    15   33   15 1  
    16   37   16 1  
    17   38   17 1  
    18   39   18 1  
    19   39   19 1  
    20   20   24 ar 
    21   25   20 ar 
    22   34   25 ar 
    23   26   25 1  
    24   27   26 1  
    25   27   33 1  
    26   28   27 1  
    27   29   28 2  
    28   39   29 1  
    29   29   30 1  
    30   30   32 1  
    31   32   34 1  
    32   32   33 1  
    33   34   35 ar 
    34   35   21 1  
    35   35   36 ar 
    36   36   37 ar 
    37   36   24 ar 
    38   24   23 ar 
    39   23   22 ar 
    40   38   22 ar 
    41   37   38 ar 
    42   39   31 1  
    43   22   40 1  
@<TRIPOS>SUBSTRUCTURE
     1 SUB1        1 GROUP

