### 
### Created by X-TOOL on Mon Oct 24 22:35:16 2005
### 

@<TRIPOS>MOLECULE
1mtr_ligand
   92    94     1     0     0
SMALL
GAST_HUCK


@<TRIPOS>ATOM
      1 O1          3.8120   -0.1510   12.1280 O.2       1 SUB1       -0.377
      2 C           3.8390    1.0700   12.4190 C.2       1 SUB1        0.320
      3 O2          2.8460    1.9070   12.1390 O.3       1 SUB1       -0.258
      4 CT          1.6090    1.3620   11.6690 C.3       1 SUB1        0.090
      5 C1          1.0660    0.3590   12.6570 C.3       1 SUB1       -0.032
      6 C2          0.6500    2.5150   11.5790 C.3       1 SUB1       -0.032
      7 C3          1.8150    0.7460   10.2690 C.3       1 SUB1       -0.032
      8 CM          4.8260   -0.3500   15.1620 C.3       1 SUB1       -0.002
      9 N           4.8920    1.6410   12.9920 N.am      1 SUB1       -0.255
     10 CA          6.0860    0.8980   13.3940 C.3       1 SUB1        0.084
     11 CB          7.3250    1.7310   13.1470 C.3       1 SUB1        0.007
     12 CG          7.5170    2.0830   11.7380 C.ar      1 SUB1       -0.041
     13 CD1         7.8520    1.1030   10.8180 C.ar      1 SUB1       -0.060
     14 CD2         7.2770    3.3810   11.3000 C.ar      1 SUB1       -0.060
     15 CE1         7.9340    1.4070    9.4770 C.ar      1 SUB1       -0.069
     16 CE2         7.3590    3.6950    9.9590 C.ar      1 SUB1       -0.069
     17 CZ          7.6860    2.7010    9.0420 C.ar      1 SUB1       -0.069
     18 C           6.0250    0.5400   14.8670 C.3       1 SUB1        0.119
     19 O           7.2140   -0.1580   15.2100 O.3       1 SUB1       -0.384
     20 N           4.9800   -0.7490   16.5650 N.4       1 SUB1        0.249
     21 CA          4.7330   -2.1850   16.8660 C.3       1 SUB1        0.075
     22 C           5.7270   -3.1840   16.2610 C.2       1 SUB1        0.229
     23 O           5.9380   -3.2130   15.0430 O.2       1 SUB1       -0.391
     24 CB          3.3070   -2.6010   16.4850 C.3       1 SUB1        0.037
     25 CG          3.0880   -4.0880   16.5880 C.ar      1 SUB1       -0.046
     26 CD1         3.0430   -4.7290   17.8400 C.ar      1 SUB1       -0.068
     27 CD2         3.0690   -4.8820   15.4370 C.ar      1 SUB1       -0.068
     28 CE1         3.0070   -6.1030   17.9280 C.ar      1 SUB1       -0.040
     29 CE2         3.0270   -6.2650   15.5160 C.ar      1 SUB1       -0.040
     30 CZ          3.0060   -6.8700   16.7570 C.ar      1 SUB1        0.084
     31 OH          3.0180   -8.2490   16.7780 O.3       1 SUB1       -0.322
     32 N           6.3020   -4.0050   17.1410 N.am      1 SUB1       -0.261
     33 CA          7.2390   -5.1000   16.8040 C.3       1 SUB1        0.133
     34 C           6.8690   -6.1580   17.8470 C.2       1 SUB1        0.202
     35 O           6.8500   -5.8730   19.0590 O.2       1 SUB1       -0.394
     36 CB          8.7390   -4.7770   17.0390 C.3       1 SUB1       -0.004
     37 CG1         9.2220   -3.6210   16.1610 C.3       1 SUB1       -0.049
     38 CG2         9.5760   -6.0270   16.7730 C.3       1 SUB1       -0.058
     39 CD1         9.7030   -4.0590   14.8430 C.3       1 SUB1       -0.065
     40 N           6.5430   -7.3550   17.3700 N.am      1 SUB1       -0.285
     41 CA          6.1610   -8.4480   18.2470 C.3       1 SUB1        0.033
     42 C           5.0770   -9.2840   17.5770 C.3       1 SUB1       -0.005
     43 C           3.6870   -8.7600   17.9160 C.3       1 SUB1        0.071
     44 H201        5.9239   -0.5332   16.8450 H         1 SUB1        0.204
     45 H211        4.8214   -2.2834   17.9580 H         1 SUB1        0.112
     46 H241        3.1142   -2.2879   15.4483 H         1 SUB1        0.049
     47 H242        2.6006   -2.0937   17.1585 H         1 SUB1        0.049
     48 H261        3.0366   -4.1341   18.7462 H         1 SUB1        0.053
     49 H271        3.0875   -4.4061   14.4632 H         1 SUB1        0.053
     50 H281        2.9796   -6.5872   18.8975 H         1 SUB1        0.052
     51 H291        3.0108   -6.8652   14.6135 H         1 SUB1        0.052
     52 H321        6.0821   -3.8697   18.1071 H         1 SUB1        0.189
     53 H331        7.0838   -5.4456   15.7713 H         1 SUB1        0.080
     54 H361        8.8682   -4.4846   18.0915 H         1 SUB1        0.034
     55 H371       10.0441   -3.1069   16.6804 H         1 SUB1        0.027
     56 H372        8.3866   -2.9207   16.0137 H         1 SUB1        0.027
     57 H381        9.2693   -6.8272   17.4626 H         1 SUB1        0.023
     58 H382       10.6400   -5.7960   16.9295 H         1 SUB1        0.023
     59 H383        9.4214   -6.3579   15.7354 H         1 SUB1        0.023
     60 H391       10.5528   -4.7454   14.9724 H         1 SUB1        0.023
     61 H392       10.0246   -3.1832   14.2604 H         1 SUB1        0.023
     62 H393        8.8917   -4.5762   14.3099 H         1 SUB1        0.023
     63 H401        6.5612   -7.5070   16.3818 H         1 SUB1        0.185
     64 H411        7.0386   -9.0797   18.4487 H         1 SUB1        0.052
     65 H412        5.7769   -8.0409   19.1939 H         1 SUB1        0.052
     66 H51         0.1165   -0.0493   12.2806 H         1 SUB1        0.026
     67 H52         0.8946    0.8533   13.6246 H         1 SUB1        0.026
     68 H53         1.7910   -0.4581   12.7860 H         1 SUB1        0.026
     69 H61        -0.3251    2.1537   11.2204 H         1 SUB1        0.026
     70 H62         1.0435    3.2654   10.8775 H         1 SUB1        0.026
     71 H63         0.5294    2.9701   12.5731 H         1 SUB1        0.026
     72 H71         0.8636    0.3275    9.9090 H         1 SUB1        0.026
     73 H72         2.5684   -0.0534   10.3273 H         1 SUB1        0.026
     74 H73         2.1598    1.5248    9.5728 H         1 SUB1        0.026
     75 H81         4.8308   -1.2336   14.5069 H         1 SUB1        0.084
     76 H82         3.8880    0.2067   15.0200 H         1 SUB1        0.084
     77 H91         4.8675    2.6270   13.1567 H         1 SUB1        0.187
     78 H101        6.1461   -0.0262   12.8006 H         1 SUB1        0.061
     79 H111        8.2022    1.1608   13.4867 H         1 SUB1        0.045
     80 H112        7.2429    2.6598   13.7305 H         1 SUB1        0.045
     81 H131        8.0506    0.0920   11.1550 H         1 SUB1        0.056
     82 H141        7.0234    4.1524   12.0181 H         1 SUB1        0.056
     83 H151        8.1924    0.6350    8.7613 H         1 SUB1        0.060
     84 H161        7.1702    4.7080    9.6225 H         1 SUB1        0.060
     85 H171        7.7471    2.9379    7.9860 H         1 SUB1        0.056
     86 H181        5.9490    1.4611   15.4635 H         1 SUB1        0.067
     87 H191        7.9667    0.3924   15.0281 H         1 SUB1        0.210
     88 H202        4.3338   -0.2034   17.1134 H         1 SUB1        0.204
     89 H421        5.1619  -10.3248   17.9226 H         1 SUB1        0.031
     90 H422        5.2181   -9.2469   16.4867 H         1 SUB1        0.031
     91 H431        3.0911   -9.5827   18.3380 H         1 SUB1        0.061
     92 H432        3.7829   -7.9568   18.6614 H         1 SUB1        0.061
@<TRIPOS>BOND
     1    2    1 2  
     2    2    3 1  
     3    3    4 1  
     4    4    7 1  
     5    4    6 1  
     6    4    5 1  
     7   18    8 1  
     8   18   19 1  
     9   10   18 1  
    10   10   11 1  
    11    9   10 1  
    12   11   12 1  
    13   12   14 ar 
    14   12   13 ar 
    15   13   15 ar 
    16   15   17 ar 
    17   16   17 ar 
    18   14   16 ar 
    19   21   22 1  
    20   21   24 1  
    21   20   21 1  
    22   24   25 1  
    23   25   27 ar 
    24   25   26 ar 
    25   26   28 ar 
    26   28   30 ar 
    27   30   31 1  
    28   29   30 ar 
    29   27   29 ar 
    30   22   23 2  
    31   33   34 1  
    32   33   36 1  
    33   32   33 1  
    34   36   37 1  
    35   36   38 1  
    36   37   39 1  
    37   34   35 2  
    38   41   42 1  
    39   40   41 1  
    40   22   32 am 
    41   34   40 am 
    42    8   20 1  
    43   31   43 1  
    44   43   42 1  
    45    9    2 am 
    46   20   44 1  
    47   21   45 1  
    48   24   46 1  
    49   24   47 1  
    50   26   48 1  
    51   27   49 1  
    52   28   50 1  
    53   29   51 1  
    54   32   52 1  
    55   33   53 1  
    56   36   54 1  
    57   37   55 1  
    58   37   56 1  
    59   38   57 1  
    60   38   58 1  
    61   38   59 1  
    62   39   60 1  
    63   39   61 1  
    64   39   62 1  
    65   40   63 1  
    66   41   64 1  
    67   41   65 1  
    68    5   66 1  
    69    5   67 1  
    70    5   68 1  
    71    6   69 1  
    72    6   70 1  
    73    6   71 1  
    74    7   72 1  
    75    7   73 1  
    76    7   74 1  
    77    8   75 1  
    78    8   76 1  
    79    9   77 1  
    80   10   78 1  
    81   11   79 1  
    82   11   80 1  
    83   13   81 1  
    84   14   82 1  
    85   15   83 1  
    86   16   84 1  
    87   17   85 1  
    88   18   86 1  
    89   19   87 1  
    90   20   88 1  
    91   42   89 1  
    92   42   90 1  
    93   43   91 1  
    94   43   92 1  
@<TRIPOS>SUBSTRUCTURE
     1 SUB1        1 GROUP

