### 
### Created by X-TOOL on Sun Jun  3 11:20:04 2007
### 

@<TRIPOS>MOLECULE
2d0k_ligand
   49    51     1     0     0
SMALL
GAST_HUCK


@<TRIPOS>ATOM
      1 N1         25.7130   -0.1330    4.2750 N.2       1 SUB1       -0.282
      2 C2         26.2710   -0.3150    3.0890 C.2       1 SUB1        0.238
      3 NA2        25.7410   -0.6880    2.0920 N.pl3     1 SUB1       -0.278
      4 N3         27.5850   -0.0500    2.9650 N.am      1 SUB1       -0.173
      5 C4         28.3040    0.3780    3.9530 C.2       1 SUB1        0.260
      6 O4         29.4380    0.5880    3.7640 O.2       1 SUB1       -0.377
      7 C4A        27.6520    0.5690    5.2130 C.ar      1 SUB1        0.148
      8 N5         28.3700    1.0460    6.3350 N.ar      1 SUB1       -0.265
      9 C6         27.5940    1.1820    7.4800 C.ar      1 SUB1        0.073
     10 C7         26.2380    0.8330    7.3980 C.ar      1 SUB1        0.035
     11 N8         25.6260    0.4320    6.4720 N.ar      1 SUB1       -0.281
     12 C8A        26.3710    0.2950    5.3150 C.ar      1 SUB1        0.096
     13 C9         28.2430    1.6700    8.6450 C.3       1 SUB1        0.076
     14 N10        29.6990    2.1740    8.4260 N.pl3     1 SUB1       -0.307
     15 C11        30.7510    5.7450    6.1770 C.ar      1 SUB1        0.036
     16 C12        31.7260    4.8990    6.7820 C.ar      1 SUB1       -0.054
     17 C13        31.4170    3.6730    7.5650 C.ar      1 SUB1       -0.038
     18 C14        29.9990    3.3010    7.7260 C.ar      1 SUB1        0.045
     19 C15        29.1170    4.0920    7.1670 C.ar      1 SUB1       -0.038
     20 C16        29.4850    5.3610    6.3620 C.ar      1 SUB1       -0.054
     21 C          31.1030    6.9670    5.3850 C.2       1 SUB1        0.198
     22 O          32.2050    7.7750    5.6790 O.2       1 SUB1       -0.391
     23 N          30.3340    7.2710    4.3580 N.am      1 SUB1       -0.271
     24 CA         30.3960    8.4790    3.6150 C.3       1 SUB1        0.083
     25 CB         30.7060    8.1460    2.0550 C.3       1 SUB1       -0.007
     26 CG         32.0230    8.5750    1.7430 C.3       1 SUB1       -0.009
     27 CD         32.0030    8.7940    0.4780 C.2       1 SUB1        0.028
     28 OE1        31.9240   10.2340    0.2760 O.co2     1 SUB1       -0.567
     29 OE2        32.0540    7.7580   -0.3590 O.co2     1 SUB1       -0.567
     30 CT         29.0780    9.0430    3.5080 C.2       1 SUB1        0.053
     31 O1         27.9580    8.3150    3.5160 O.co2     1 SUB1       -0.564
     32 O2         29.1130   10.2300    3.4120 O.co2     1 SUB1       -0.564
     33 H          24.7360   -0.9137    2.0964 H         1 SUB1        0.192
     34 H          26.2869   -0.7854    1.2240 H         1 SUB1        0.192
     35 H          28.0222   -0.1889    2.0764 H         1 SUB1        0.253
     36 H          25.6718    0.9479    8.3152 H         1 SUB1        0.087
     37 H          28.2714    0.8570    9.3854 H         1 SUB1        0.070
     38 H          27.6487    2.5064    9.0414 H         1 SUB1        0.070
     39 H          30.4728    1.6278    8.8307 H         1 SUB1        0.180
     40 H          32.7690    5.1691    6.6625 H         1 SUB1        0.064
     41 H          32.2070    3.0733    8.0024 H         1 SUB1        0.053
     42 H          28.0676    3.8428    7.2748 H         1 SUB1        0.053
     43 H          28.6886    5.9587    5.9336 H         1 SUB1        0.064
     44 H          29.6513    6.5954    4.0798 H         1 SUB1        0.189
     45 H          31.1243    9.1761    4.0549 H         1 SUB1        0.078
     46 H          29.9846    8.6748    1.4147 H         1 SUB1        0.036
     47 H          30.6214    7.0625    1.8854 H         1 SUB1        0.036
     48 H          32.7549    7.7917    1.9896 H         1 SUB1        0.049
     49 H          32.2717    9.4951    2.2921 H         1 SUB1        0.049
@<TRIPOS>BOND
     1    1    2 2  
     2   12    1 1  
     3    2    3 1  
     4    4    2 am 
     5    5    4 am 
     6    5    6 2  
     7    7    5 1  
     8    8    7 ar 
     9    7   12 ar 
    10    9    8 ar 
    11    9   10 ar 
    12   13    9 1  
    13   10   11 ar 
    14   11   12 ar 
    15   14   13 1  
    16   18   14 1  
    17   16   15 ar 
    18   15   20 ar 
    19   15   21 1  
    20   17   16 ar 
    21   17   18 ar 
    22   18   19 ar 
    23   19   20 ar 
    24   21   22 2  
    25   21   23 am 
    26   23   24 1  
    27   24   25 1  
    28   24   30 1  
    29   25   26 1  
    30   26   27 1  
    31   27   28 2  
    32   27   29 2  
    33   30   31 2  
    34   30   32 2  
    35    3   33 1  
    36    3   34 1  
    37    4   35 1  
    38   10   36 1  
    39   13   37 1  
    40   13   38 1  
    41   14   39 1  
    42   16   40 1  
    43   17   41 1  
    44   19   42 1  
    45   20   43 1  
    46   23   44 1  
    47   24   45 1  
    48   25   46 1  
    49   25   47 1  
    50   26   48 1  
    51   26   49 1  
@<TRIPOS>SUBSTRUCTURE
     1 SUB1        1 GROUP

