1ugx_ligand
  -I-interpret- 

 54 55  0  0  0  0  0  0  0  0999 V2000
   38.2590   34.4510   25.4310 C   0  0  0  0  0
   39.3090   34.6100   24.3490 C   0  0  0  0  0
   40.0520   35.9310   24.5350 C   0  0  0  0  0
   39.0350   37.1720   24.4260 C   0  0  0  0  0
   37.9510   37.0050   25.5490 C   0  0  0  0  0
   36.7700   37.8920   25.9000 C   0  0  0  0  0
   40.1670   33.4770   24.4450 O   0  0  0  0  0
   41.0350   36.0550   23.5120 O   0  0  0  0  0
   38.3350   37.1690   23.1730 O   0  0  0  0  0
   37.3220   35.6210   25.4040 O   0  0  0  0  0
   35.7330   37.8690   26.8680 O   0  0  0  0  0
   32.0040   32.6350   26.5090 O   0  0  0  0  0
   32.8500   33.0820   27.5500 C   0  0  0  0  0
   34.2970   32.5870   27.4100 C   0  0  0  0  0
   34.3580   31.0970   27.0990 O   0  0  0  0  0
   35.7100   30.4760   26.9570 C   0  0  0  0  0
   36.3570   30.4950   28.2390 O   0  0  0  0  0
   35.7250   29.7650   29.4700 C   0  0  0  0  0
   36.5020   31.2500   25.9000 C   0  0  0  0  0
   37.7340   30.5590   25.8660 N   0  0  0  0  0
   38.4030   30.2170   24.7300 C   0  0  0  0  0
   37.8600   30.1380   23.6130 O   0  0  0  0  0
   39.8880   29.9270   24.8530 C   0  0  0  0  0
   36.5490   32.7350   26.2580 C   0  0  0  0  0
   37.2990   33.3920   25.2820 O   0  0  0  0  0
   35.1040   33.3520   26.2630 C   0  0  0  0  0
   34.5370   33.0940   24.9530 O   0  0  0  0  0
   38.7688   34.3484   26.4003 H   0  0  0  0  0
   38.8343   34.6041   23.3568 H   0  0  0  0  0
   40.5508   35.9426   25.5153 H   0  0  0  0  0
   39.5795   38.1213   24.5365 H   0  0  0  0  0
   38.5522   36.9948   26.4701 H   0  0  0  0  0
   37.2419   38.8663   26.0947 H   0  0  0  0  0
   36.2022   37.9316   24.9587 H   0  0  0  0  0
   40.8373   33.5310   23.7739 H   0  0  0  0  0
   41.6417   35.3261   23.5673 H   0  0  0  0  0
   37.8689   36.3472   23.0739 H   0  0  0  0  0
   35.1759   38.6298   26.7518 H   0  0  0  0  0
   32.3356   32.9492   25.6761 H   0  0  0  0  0
   32.8667   34.1818   27.5478 H   0  0  0  0  0
   32.4579   32.7148   28.5099 H   0  0  0  0  0
   34.8131   32.7746   28.3631 H   0  0  0  0  0
   35.6108   29.4352   26.6151 H   0  0  0  0  0
   36.3786   29.9049   30.3437 H   0  0  0  0  0
   34.7353   30.1910   29.6912 H   0  0  0  0  0
   35.6320   28.6891   29.2610 H   0  0  0  0  0
   36.0152   31.1762   24.9164 H   0  0  0  0  0
   38.1451   30.3021   26.7406 H   0  0  0  0  0
   40.2856   29.6675   23.8607 H   0  0  0  0  0
   40.4142   30.8171   25.2281 H   0  0  0  0  0
   40.0495   29.0802   25.5362 H   0  0  0  0  0
   37.0002   32.8714   27.2519 H   0  0  0  0  0
   35.1217   34.4355   26.4515 H   0  0  0  0  0
   35.0781   33.5041   24.2886 H   0  0  0  0  0
  1  2  1  0  0  0
  1 10  1  0  0  0
  2  3  1  0  0  0
  2  7  1  0  0  0
  3  4  1  0  0  0
  3  8  1  0  0  0
  5  4  1  0  0  0
  4  9  1  0  0  0
  5  6  1  0  0  0
 10  5  1  0  0  0
  6 11  1  0  0  0
 13 12  1  0  0  0
 14 13  1  0  0  0
 14 15  1  0  0  0
 26 14  1  0  0  0
 16 15  1  0  0  0
 16 17  1  0  0  0
 19 16  1  0  0  0
 17 18  1  0  0  0
 19 20  1  0  0  0
 24 19  1  0  0  0
 20 21  1  0  0  0
 21 22  2  0  0  0
 21 23  1  0  0  0
 25 24  1  0  0  0
 24 26  1  0  0  0
 25  1  1  0  0  0
 26 27  1  0  0  0
  1 28  1  0  0  0
  2 29  1  0  0  0
  3 30  1  0  0  0
  4 31  1  0  0  0
  5 32  1  0  0  0
  6 33  1  0  0  0
  6 34  1  0  0  0
  7 35  1  0  0  0
  8 36  1  0  0  0
  9 37  1  0  0  0
 11 38  1  0  0  0
 12 39  1  0  0  0
 13 40  1  0  0  0
 13 41  1  0  0  0
 14 42  1  0  0  0
 16 43  1  0  0  0
 18 44  1  0  0  0
 18 45  1  0  0  0
 18 46  1  0  0  0
 19 47  1  0  0  0
 20 48  1  0  0  0
 23 49  1  0  0  0
 23 50  1  0  0  0
 23 51  1  0  0  0
 24 52  1  0  0  0
 26 53  1  0  0  0
 27 54  1  0  0  0
M  END
$$$$
