### 
### Created by X-TOOL on Mon Oct 24 22:05:54 2005
### 

@<TRIPOS>MOLECULE
1ugx_ligand
   54    55     1     0     0
SMALL
GAST_HUCK


@<TRIPOS>ATOM
      1 C1         38.2590   34.4510   25.4310 C.3       1 SUB1        0.188
      2 C2         39.3090   34.6100   24.3490 C.3       1 SUB1        0.134
      3 C3         40.0520   35.9310   24.5350 C.3       1 SUB1        0.114
      4 C4         39.0350   37.1720   24.4260 C.3       1 SUB1        0.112
      5 C5         37.9510   37.0050   25.5490 C.3       1 SUB1        0.113
      6 C6         36.7700   37.8920   25.9000 C.3       1 SUB1        0.073
      7 O2         40.1670   33.4770   24.4450 O.3       1 SUB1       -0.384
      8 O3         41.0350   36.0550   23.5120 O.3       1 SUB1       -0.386
      9 O4         38.3350   37.1690   23.1730 O.3       1 SUB1       -0.387
     10 O5         37.3220   35.6210   25.4040 O.3       1 SUB1       -0.340
     11 O6         35.7330   37.8690   26.8680 O.3       1 SUB1       -0.392
     12 O6         32.0040   32.6350   26.5090 O.3       1 SUB1       -0.392
     13 C6         32.8500   33.0820   27.5500 C.3       1 SUB1        0.073
     14 C5         34.2970   32.5870   27.4100 C.3       1 SUB1        0.113
     15 O5         34.3580   31.0970   27.0990 O.3       1 SUB1       -0.341
     16 C1         35.7100   30.4760   26.9570 C.3       1 SUB1        0.184
     17 O1         36.3570   30.4950   28.2390 O.3       1 SUB1       -0.352
     18 CM         35.7250   29.7650   29.4700 C.3       1 SUB1        0.040
     19 C2         36.5020   31.2500   25.9000 C.3       1 SUB1        0.121
     20 N2         37.7340   30.5590   25.8660 N.am      1 SUB1       -0.277
     21 C7         38.4030   30.2170   24.7300 C.2       1 SUB1        0.173
     22 O7         37.8600   30.1380   23.6130 O.2       1 SUB1       -0.397
     23 C8         39.8880   29.9270   24.8530 C.3       1 SUB1        0.026
     24 C3         36.5490   32.7350   26.2580 C.3       1 SUB1        0.118
     25 O3         37.2990   33.3920   25.2820 O.3       1 SUB1       -0.340
     26 C4         35.1040   33.3520   26.2630 C.3       1 SUB1        0.112
     27 O4         34.5370   33.0940   24.9530 O.3       1 SUB1       -0.387
     28 H11        38.7688   34.3484   26.4003 H         1 SUB1        0.094
     29 H21        38.8343   34.6041   23.3568 H         1 SUB1        0.067
     30 H31        40.5508   35.9426   25.5153 H         1 SUB1        0.065
     31 H41        39.5795   38.1213   24.5365 H         1 SUB1        0.065
     32 H51        38.5522   36.9948   26.4701 H         1 SUB1        0.065
     33 H61        37.2419   38.8663   26.0947 H         1 SUB1        0.058
     34 H62        36.2022   37.9316   24.9587 H         1 SUB1        0.058
     35 H71        40.8373   33.5310   23.7739 H         1 SUB1        0.210
     36 H81        41.6417   35.3261   23.5673 H         1 SUB1        0.210
     37 H91        37.8689   36.3472   23.0739 H         1 SUB1        0.210
     38 H111       35.1759   38.6298   26.7518 H         1 SUB1        0.209
     39 H121       32.3356   32.9492   25.6761 H         1 SUB1        0.209
     40 H131       32.8667   34.1818   27.5478 H         1 SUB1        0.058
     41 H132       32.4579   32.7148   28.5099 H         1 SUB1        0.058
     42 H141       34.8131   32.7746   28.3631 H         1 SUB1        0.065
     43 H161       35.6108   29.4352   26.6151 H         1 SUB1        0.093
     44 H181       36.3786   29.9049   30.3437 H         1 SUB1        0.052
     45 H182       34.7353   30.1910   29.6912 H         1 SUB1        0.052
     46 H183       35.6320   28.6891   29.2610 H         1 SUB1        0.052
     47 H191       36.0152   31.1762   24.9164 H         1 SUB1        0.063
     48 H201       38.1451   30.3021   26.7406 H         1 SUB1        0.186
     49 H231       40.2856   29.6675   23.8607 H         1 SUB1        0.047
     50 H232       40.4142   30.8171   25.2281 H         1 SUB1        0.047
     51 H233       40.0495   29.0802   25.5362 H         1 SUB1        0.047
     52 H241       37.0002   32.8714   27.2519 H         1 SUB1        0.065
     53 H261       35.1217   34.4355   26.4515 H         1 SUB1        0.065
     54 H271       35.0781   33.5041   24.2886 H         1 SUB1        0.210
@<TRIPOS>BOND
     1    1    2 1  
     2    1   10 1  
     3    2    3 1  
     4    2    7 1  
     5    3    4 1  
     6    3    8 1  
     7    5    4 1  
     8    4    9 1  
     9    5    6 1  
    10   10    5 1  
    11    6   11 1  
    12   13   12 1  
    13   14   13 1  
    14   14   15 1  
    15   26   14 1  
    16   16   15 1  
    17   16   17 1  
    18   19   16 1  
    19   17   18 1  
    20   19   20 1  
    21   24   19 1  
    22   20   21 am 
    23   21   22 2  
    24   21   23 1  
    25   25   24 1  
    26   24   26 1  
    27   25    1 1  
    28   26   27 1  
    29    1   28 1  
    30    2   29 1  
    31    3   30 1  
    32    4   31 1  
    33    5   32 1  
    34    6   33 1  
    35    6   34 1  
    36    7   35 1  
    37    8   36 1  
    38    9   37 1  
    39   11   38 1  
    40   12   39 1  
    41   13   40 1  
    42   13   41 1  
    43   14   42 1  
    44   16   43 1  
    45   18   44 1  
    46   18   45 1  
    47   18   46 1  
    48   19   47 1  
    49   20   48 1  
    50   23   49 1  
    51   23   50 1  
    52   23   51 1  
    53   24   52 1  
    54   26   53 1  
    55   27   54 1  
@<TRIPOS>SUBSTRUCTURE
     1 SUB1        1 GROUP

