### 
### Created by X-TOOL on Mon Oct 24 22:01:42 2005
### 

@<TRIPOS>MOLECULE
1gzc_ligand
   45    46     1     0     0
SMALL
GAST_HUCK


@<TRIPOS>ATOM
      1 H21        83.6958   42.3177   29.5707 H         1 SUB1        0.094
      2 C1         83.5890   42.7070   30.5940 C.3       1 SUB1        0.188
      3 C2         83.3470   41.5450   31.5350 C.3       1 SUB1        0.134
      4 C3         81.9990   40.8490   31.0880 C.3       1 SUB1        0.114
      5 C4         80.8800   41.9040   31.1440 C.3       1 SUB1        0.112
      6 C5         81.2420   43.0760   30.2260 C.3       1 SUB1        0.113
      7 C6         80.2060   44.1980   30.2870 C.3       1 SUB1        0.073
      8 O1         84.7910   43.4140   30.9710 O.3       1 SUB1       -0.340
      9 O2         84.4430   40.5970   31.4980 O.3       1 SUB1       -0.384
     10 O3         81.7290   39.7410   31.9440 O.3       1 SUB1       -0.386
     11 O4         80.6980   42.4520   32.4430 O.3       1 SUB1       -0.387
     12 O5         82.5060   43.6490   30.6340 O.3       1 SUB1       -0.340
     13 O6         80.4780   45.0920   29.1980 O.3       1 SUB1       -0.392
     14 C1'        87.2420   46.5170   29.5120 C.3       1 SUB1        0.185
     15 C2'        85.7470   46.8320   29.4400 C.3       1 SUB1        0.134
     16 C3'        85.0230   45.8400   30.3920 C.3       1 SUB1        0.114
     17 C4'        85.3410   44.3870   29.9980 C.3       1 SUB1        0.118
     18 C5'        86.8550   44.1320   29.9620 C.3       1 SUB1        0.113
     19 C6'        87.1800   42.7380   29.3860 C.3       1 SUB1        0.073
     20 O1'        87.9290   47.3930   28.6630 O.3       1 SUB1       -0.365
     21 O2'        85.4500   48.1460   29.8720 O.3       1 SUB1       -0.384
     22 O3'        83.6150   46.1090   30.3420 O.3       1 SUB1       -0.386
     23 O5'        87.4560   45.1390   29.0630 O.3       1 SUB1       -0.341
     24 O6'        88.5790   42.4900   29.4290 O.3       1 SUB1       -0.392
     25 H31        83.2422   41.9239   32.5624 H         1 SUB1        0.067
     26 H41        82.0975   40.4833   30.0553 H         1 SUB1        0.065
     27 H51        79.9401   41.4401   30.8103 H         1 SUB1        0.065
     28 H61        81.3171   42.7056   29.1930 H         1 SUB1        0.065
     29 H71        80.2886   44.7346   31.2437 H         1 SUB1        0.058
     30 H72        79.1932   43.7806   30.1869 H         1 SUB1        0.058
     31 H91        84.2622   39.8821   32.0968 H         1 SUB1        0.210
     32 H101       82.4425   39.1165   31.8864 H         1 SUB1        0.210
     33 H111       81.5034   42.8695   32.7251 H         1 SUB1        0.210
     34 H131       81.3559   45.4434   29.2899 H         1 SUB1        0.209
     35 H141       87.6029   46.6353   30.5443 H         1 SUB1        0.094
     36 H151       85.3934   46.6995   28.4068 H         1 SUB1        0.067
     37 H161       85.3783   46.0058   31.4197 H         1 SUB1        0.065
     38 H171       84.9107   44.1953   29.0040 H         1 SUB1        0.065
     39 H181       87.2717   44.2218   30.9760 H         1 SUB1        0.065
     40 H191       86.8367   42.6897   28.3421 H         1 SUB1        0.058
     41 H192       86.6592   41.9719   29.9791 H         1 SUB1        0.058
     42 H201       88.8571   47.1913   28.6856 H         1 SUB1        0.213
     43 H211       84.5107   48.2843   29.8389 H         1 SUB1        0.210
     44 H221       83.1616   45.5301   30.9435 H         1 SUB1        0.210
     45 H241       89.0321   43.1482   28.9153 H         1 SUB1        0.209
@<TRIPOS>BOND
     1    2   12 1  
     2    2    8 1  
     3    2    3 1  
     4    3    9 1  
     5    3    4 1  
     6    4   10 1  
     7    4    5 1  
     8    5   11 1  
     9    5    6 1  
    10    6   12 1  
    11    6    7 1  
    12    7   13 1  
    13    8   17 1  
    14   17   18 1  
    15   17   16 1  
    16   16   22 1  
    17   16   15 1  
    18   15   21 1  
    19   15   14 1  
    20   14   23 1  
    21   14   20 1  
    22   23   18 1  
    23   18   19 1  
    24   19   24 1  
    25    2    1 1  
    26    3   25 1  
    27    4   26 1  
    28    5   27 1  
    29    6   28 1  
    30    7   29 1  
    31    7   30 1  
    32    9   31 1  
    33   10   32 1  
    34   11   33 1  
    35   13   34 1  
    36   14   35 1  
    37   15   36 1  
    38   16   37 1  
    39   17   38 1  
    40   18   39 1  
    41   19   40 1  
    42   19   41 1  
    43   20   42 1  
    44   21   43 1  
    45   22   44 1  
    46   24   45 1  
@<TRIPOS>SUBSTRUCTURE
     1 SUB1        1 GROUP

