1gzc_ligand
  -I-interpret- 

 45 46  0  0  0  0  0  0  0  0999 V2000
   83.6958   42.3177   29.5707 H   0  0  0  0  0
   83.5890   42.7070   30.5940 C   0  0  0  0  0
   83.3470   41.5450   31.5350 C   0  0  0  0  0
   81.9990   40.8490   31.0880 C   0  0  0  0  0
   80.8800   41.9040   31.1440 C   0  0  0  0  0
   81.2420   43.0760   30.2260 C   0  0  0  0  0
   80.2060   44.1980   30.2870 C   0  0  0  0  0
   84.7910   43.4140   30.9710 O   0  0  0  0  0
   84.4430   40.5970   31.4980 O   0  0  0  0  0
   81.7290   39.7410   31.9440 O   0  0  0  0  0
   80.6980   42.4520   32.4430 O   0  0  0  0  0
   82.5060   43.6490   30.6340 O   0  0  0  0  0
   80.4780   45.0920   29.1980 O   0  0  0  0  0
   87.2420   46.5170   29.5120 C   0  0  0  0  0
   85.7470   46.8320   29.4400 C   0  0  0  0  0
   85.0230   45.8400   30.3920 C   0  0  0  0  0
   85.3410   44.3870   29.9980 C   0  0  0  0  0
   86.8550   44.1320   29.9620 C   0  0  0  0  0
   87.1800   42.7380   29.3860 C   0  0  0  0  0
   87.9290   47.3930   28.6630 O   0  0  0  0  0
   85.4500   48.1460   29.8720 O   0  0  0  0  0
   83.6150   46.1090   30.3420 O   0  0  0  0  0
   87.4560   45.1390   29.0630 O   0  0  0  0  0
   88.5790   42.4900   29.4290 O   0  0  0  0  0
   83.2422   41.9239   32.5624 H   0  0  0  0  0
   82.0975   40.4833   30.0553 H   0  0  0  0  0
   79.9401   41.4401   30.8103 H   0  0  0  0  0
   81.3171   42.7056   29.1930 H   0  0  0  0  0
   80.2886   44.7346   31.2437 H   0  0  0  0  0
   79.1932   43.7806   30.1869 H   0  0  0  0  0
   84.2622   39.8821   32.0968 H   0  0  0  0  0
   82.4425   39.1165   31.8864 H   0  0  0  0  0
   81.5034   42.8695   32.7251 H   0  0  0  0  0
   81.3559   45.4434   29.2899 H   0  0  0  0  0
   87.6029   46.6353   30.5443 H   0  0  0  0  0
   85.3934   46.6995   28.4068 H   0  0  0  0  0
   85.3783   46.0058   31.4197 H   0  0  0  0  0
   84.9107   44.1953   29.0040 H   0  0  0  0  0
   87.2717   44.2218   30.9760 H   0  0  0  0  0
   86.8367   42.6897   28.3421 H   0  0  0  0  0
   86.6592   41.9719   29.9791 H   0  0  0  0  0
   88.8571   47.1913   28.6856 H   0  0  0  0  0
   84.5107   48.2843   29.8389 H   0  0  0  0  0
   83.1616   45.5301   30.9435 H   0  0  0  0  0
   89.0321   43.1482   28.9153 H   0  0  0  0  0
  2 12  1  0  0  0
  2  8  1  0  0  0
  2  3  1  0  0  0
  3  9  1  0  0  0
  3  4  1  0  0  0
  4 10  1  0  0  0
  4  5  1  0  0  0
  5 11  1  0  0  0
  5  6  1  0  0  0
  6 12  1  0  0  0
  6  7  1  0  0  0
  7 13  1  0  0  0
  8 17  1  0  0  0
 17 18  1  0  0  0
 17 16  1  0  0  0
 16 22  1  0  0  0
 16 15  1  0  0  0
 15 21  1  0  0  0
 15 14  1  0  0  0
 14 23  1  0  0  0
 14 20  1  0  0  0
 23 18  1  0  0  0
 18 19  1  0  0  0
 19 24  1  0  0  0
  2  1  1  0  0  0
  3 25  1  0  0  0
  4 26  1  0  0  0
  5 27  1  0  0  0
  6 28  1  0  0  0
  7 29  1  0  0  0
  7 30  1  0  0  0
  9 31  1  0  0  0
 10 32  1  0  0  0
 11 33  1  0  0  0
 13 34  1  0  0  0
 14 35  1  0  0  0
 15 36  1  0  0  0
 16 37  1  0  0  0
 17 38  1  0  0  0
 18 39  1  0  0  0
 19 40  1  0  0  0
 19 41  1  0  0  0
 20 42  1  0  0  0
 21 43  1  0  0  0
 22 44  1  0  0  0
 24 45  1  0  0  0
M  END
$$$$
