1ela_ligand
  -I-interpret- 

 64 65  0  0  0  0  0  0  0  0999 V2000
   41.9298   22.2977   38.9249 H   0  0  0  0  0
   41.4548   20.7332   36.6751 H   0  0  0  0  0
   41.3622   20.5147   39.6780 H   0  0  0  0  0
   42.4742   19.7403   38.4990 H   0  0  0  0  0
   39.8957   18.6144   38.1128 H   0  0  0  0  0
   40.2216   18.6507   39.8788 H   0  0  0  0  0
   42.1585   17.2857   39.6653 H   0  0  0  0  0
   42.2846   17.5833   37.8983 H   0  0  0  0  0
   40.2063   16.3608   37.4830 H   0  0  0  0  0
   39.8964   16.2034   39.2452 H   0  0  0  0  0
   42.1142   15.0051   37.7689 H   0  0  0  0  0
   40.7717   14.2261   38.3169 H   0  0  0  0  0
   41.8445   14.8690   39.3870 H   0  0  0  0  0
   36.8447   21.2011   36.6061 H   0  0  0  0  0
   36.9248   21.4933   34.3060 H   0  0  0  0  0
   36.3141   19.8041   34.3097 H   0  0  0  0  0
   38.4503   18.8922   33.8792 H   0  0  0  0  0
   38.5958   20.4518   33.0001 H   0  0  0  0  0
   40.3318   19.6726   35.0424 H   0  0  0  0  0
   39.9867   21.3892   34.6417 H   0  0  0  0  0
   36.6014   20.3246   38.3410 H   0  0  0  0  0
   37.2451   16.7555   38.1146 H   0  0  0  0  0
   36.7223   15.2010   39.9746 H   0  0  0  0  0
   34.6061   18.3463   42.0112 H   0  0  0  0  0
   35.1064   19.8895   40.1455 H   0  0  0  0  0
   35.6071   16.2448   43.2493 H   0  0  0  0  0
   35.8604   13.7817   43.1030 H   0  0  0  0  0
   37.1917   14.6102   42.2267 H   0  0  0  0  0
   35.8341   13.8740   41.3093 H   0  0  0  0  0
   33.3260   16.4427   42.3426 H   0  0  0  0  0
   33.5845   14.8553   43.1425 H   0  0  0  0  0
   33.5976   14.9705   41.3500 H   0  0  0  0  0
   41.0260   23.4570   37.5520 C   0  0  0  0  0
   40.5080   23.4910   36.4290 O   0  0  0  0  0
   41.3570   24.7770   38.3540 C   0  0  0  0  0
   40.3210   25.6100   38.3690 F   0  0  0  0  0
   41.6550   24.6140   39.6510 F   0  0  0  0  0
   42.3640   25.4820   37.8480 F   0  0  0  0  0
   41.3550   22.2730   38.1070 N   0  0  0  0  0
   40.9500   20.9670   37.6240 C   0  0  0  0  0
   39.4240   20.9590   37.3850 C   0  0  0  0  0
   38.7000   21.3740   38.2770 O   0  0  0  0  0
   41.4240   19.9850   38.7160 C   0  0  0  0  0
   40.6820   18.6700   38.8800 C   0  0  0  0  0
   41.5880   17.4430   38.7380 C   0  0  0  0  0
   40.6760   16.2380   38.4700 C   0  0  0  0  0
   41.4070   14.9900   38.4870 N   0  3  0  0  0
   38.8360   20.5900   36.2350 N   0  0  0  0  0
   37.3820   20.3770   36.1140 C   0  0  0  0  0
   36.9250   19.0660   36.7880 C   0  0  0  0  0
   36.9440   17.9560   36.2220 O   0  0  0  0  0
   37.1460   20.4590   34.6080 C   0  0  0  0  0
   38.4480   19.9870   33.9860 C   0  0  0  0  0
   39.5430   20.4350   34.9620 C   0  0  0  0  0
   36.5850   19.3630   38.0670 N   0  0  0  0  0
   36.2230   18.4440   39.0040 C   0  0  0  0  0
   36.6700   17.1060   38.9640 C   0  0  0  0  0
   36.3750   16.2270   40.0160 C   0  0  0  0  0
   35.6300   16.6700   41.1260 C   0  0  0  0  0
   35.1810   17.9950   41.1620 C   0  0  0  0  0
   35.4700   18.8690   40.1080 C   0  0  0  0  0
   35.3340   15.7380   42.3120 C   0  0  0  0  0
   36.1110   14.4050   42.2320 C   0  0  0  0  0
   33.8640   15.4850   42.2850 C   0  0  0  0  0
 39  1  1  0  0  0
 40  2  1  0  0  0
 43  3  1  0  0  0
 43  4  1  0  0  0
 44  5  1  0  0  0
 44  6  1  0  0  0
 45  7  1  0  0  0
 45  8  1  0  0  0
 46  9  1  0  0  0
 46 10  1  0  0  0
 47 11  1  0  0  0
 47 12  1  0  0  0
 47 13  1  0  0  0
 49 14  1  0  0  0
 52 15  1  0  0  0
 52 16  1  0  0  0
 53 17  1  0  0  0
 53 18  1  0  0  0
 54 19  1  0  0  0
 54 20  1  0  0  0
 55 21  1  0  0  0
 57 22  1  0  0  0
 58 23  1  0  0  0
 60 24  1  0  0  0
 61 25  1  0  0  0
 62 26  1  0  0  0
 63 27  1  0  0  0
 63 28  1  0  0  0
 63 29  1  0  0  0
 64 30  1  0  0  0
 64 31  1  0  0  0
 64 32  1  0  0  0
 40 39  1  0  0  0
 40 43  1  0  0  0
 41 40  1  0  0  0
 41 42  2  0  0  0
 43 44  1  0  0  0
 44 45  1  0  0  0
 45 46  1  0  0  0
 46 47  1  0  0  0
 50 49  1  0  0  0
 49 52  1  0  0  0
 49 48  1  0  0  0
 48 54  1  0  0  0
 54 53  1  0  0  0
 52 53  1  0  0  0
 50 51  2  0  0  0
 48 41  1  0  0  0
 33 34  2  0  0  0
 33 35  1  0  0  0
 39 33  1  0  0  0
 35 36  1  0  0  0
 35 37  1  0  0  0
 35 38  1  0  0  0
 55 50  1  0  0  0
 56 55  1  0  0  0
 57 56  4  0  0  0
 61 56  4  0  0  0
 58 57  4  0  0  0
 59 58  4  0  0  0
 59 60  4  0  0  0
 62 59  1  0  0  0
 60 61  4  0  0  0
 62 63  1  0  0  0
 62 64  1  0  0  0
M  END
$$$$
