### 
### Created by X-TOOL on Tue Oct 25 02:21:49 2005
### 

@<TRIPOS>MOLECULE
1nny_ligand
   87    91     1     0     0
SMALL
GAST_HUCK


@<TRIPOS>ATOM
      1 C1         35.8290   28.7060   20.6170 C.ar      1 SUB1        0.020
      2 C2         35.0780   28.1540   21.7250 C.ar      1 SUB1        0.121
      3 C3         33.7560   28.6920   21.9980 C.ar      1 SUB1       -0.032
      4 C4         33.1890   29.7160   21.2280 C.ar      1 SUB1       -0.066
      5 C5         33.8940   30.2790   20.1290 C.ar      1 SUB1       -0.036
      6 C6         35.2420   29.7730   19.8100 C.ar      1 SUB1       -0.014
      7 N4         35.5230   27.1150   22.5750 N.am      1 SUB1       -0.166
      8 C9         32.6040   30.8500   17.9680 C.3       1 SUB1        0.140
      9 N1         31.9840   31.9720   17.2520 N.am      1 SUB1       -0.264
     10 C10        32.4630   32.3610   16.0380 C.2       1 SUB1        0.175
     11 C11        31.6270   29.6600   18.1900 C.2       1 SUB1        0.204
     12 N2         30.3010   29.9700   18.3220 N.am      1 SUB1       -0.285
     13 C12        29.2820   28.9250   18.5490 C.3       1 SUB1        0.031
     14 C13        28.1650   29.2630   19.5950 C.3       1 SUB1       -0.033
     15 C14        26.7080   30.6830   22.6340 C.3       1 SUB1        0.074
     16 C15        28.5960   29.4180   21.0680 C.3       1 SUB1       -0.049
     17 O1         26.0100   29.4170   22.6970 O.3       1 SUB1       -0.310
     18 O4         33.4110   31.8460   15.4450 O.2       1 SUB1       -0.397
     19 C23        31.7040   33.5410   15.4330 C.3       1 SUB1        0.026
     20 C8         35.9230   27.4280   23.9130 C.2       1 SUB1        0.121
     21 O8         32.0770   28.5200   18.2470 O.2       1 SUB1       -0.394
     22 C7         33.1950   31.3810   19.3220 C.3       1 SUB1        0.020
     23 O5         36.2070   26.5760   24.7490 O.2       1 SUB1       -0.479
     24 C24        36.0340   28.8800   24.4110 C.2       1 SUB1       -0.082
     25 O6         36.9470   29.6070   24.1070 O.co2     1 SUB1       -0.690
     26 C25        36.4960   24.7230   22.1330 C.ar      1 SUB1        0.140
     27 C26        35.4460   25.7480   22.0880 C.ar      1 SUB1        0.172
     28 C27        34.2040   25.3370   21.4860 C.ar      1 SUB1        0.012
     29 C28        33.9860   24.0540   20.9710 C.ar      1 SUB1       -0.037
     30 C29        35.0010   23.0970   21.0220 C.ar      1 SUB1       -0.036
     31 C30        36.2310   23.4300   21.5940 C.ar      1 SUB1       -0.010
     32 O9         38.3950   23.9170   23.2220 O.co2     1 SUB1       -0.465
     33 O10        38.5090   26.0420   22.6250 O.co2     1 SUB1       -0.465
     34 C31        37.8690   24.8590   22.6960 C.2       1 SUB1        0.195
     35 C32        24.6760   29.3590   23.2360 C.ar      1 SUB1        0.108
     36 C33        23.9370   30.5470   23.5910 C.ar      1 SUB1       -0.027
     37 C34        22.6210   30.4790   24.1220 C.ar      1 SUB1       -0.031
     38 C35        21.9760   29.1950   24.3210 C.ar      1 SUB1       -0.028
     39 C36        22.6860   28.0020   23.9780 C.ar      1 SUB1       -0.049
     40 C37        24.0170   28.0800   23.4460 C.ar      1 SUB1        0.036
     41 C38        24.6810   26.8240   23.1260 C.2       1 SUB1        0.075
     42 O11        25.0080   26.0510   24.1660 O.co2     1 SUB1       -0.545
     43 O12        24.9170   26.5020   22.0000 O.co2     1 SUB1       -0.545
     44 C16        37.1450   28.2110   20.2980 C.ar      1 SUB1       -0.054
     45 C17        37.8780   28.7590   19.2030 C.ar      1 SUB1       -0.064
     46 C18        37.3130   29.7990   18.4120 C.ar      1 SUB1       -0.064
     47 C19        36.0110   30.3010   18.7100 C.ar      1 SUB1       -0.057
     48 C20        28.0870   30.6390   21.9180 C.3       1 SUB1       -0.024
     49 O2         35.0250   29.2820   25.2020 O.co2     1 SUB1       -0.690
     50 C41        21.9420   31.6940   24.4620 C.ar      1 SUB1       -0.062
     51 C42        20.6210   31.6380   25.0000 C.ar      1 SUB1       -0.068
     52 C43        19.9740   30.3790   25.1970 C.ar      1 SUB1       -0.067
     53 C44        20.6380   29.1550   24.8620 C.ar      1 SUB1       -0.061
     54 H31        33.1880   28.2864   22.8274 H         1 SUB1        0.054
     55 H41        32.1994   30.0841   21.4734 H         1 SUB1        0.052
     56 H81        33.4467   30.4809   17.3650 H         1 SUB1        0.082
     57 H91        31.2065   32.4526   17.6576 H         1 SUB1        0.188
     58 H121       30.0150   30.9264   18.2634 H         1 SUB1        0.185
     59 H131       28.7798   28.7227   17.5915 H         1 SUB1        0.052
     60 H132       29.7944   28.0182   18.9027 H         1 SUB1        0.052
     61 H141       27.7006   30.2144   19.2965 H         1 SUB1        0.029
     62 H142       27.4188   28.4554   19.5641 H         1 SUB1        0.029
     63 H151       26.8634   31.0262   23.6674 H         1 SUB1        0.062
     64 H152       26.0598   31.3912   22.0971 H         1 SUB1        0.062
     65 H161       28.2615   28.5151   21.5997 H         1 SUB1        0.027
     66 H162       29.6944   29.4746   21.0794 H         1 SUB1        0.027
     67 H191       32.1498   33.7922   14.4592 H         1 SUB1        0.047
     68 H192       30.6480   33.2714   15.2846 H         1 SUB1        0.047
     69 H193       31.7782   34.4148   16.0969 H         1 SUB1        0.047
     70 H221       32.3677   31.7934   19.9181 H         1 SUB1        0.047
     71 H222       33.9220   32.1734   19.0907 H         1 SUB1        0.047
     72 H281       33.3967   26.0582   21.4288 H         1 SUB1        0.065
     73 H291       33.0273   23.8030   20.5317 H         1 SUB1        0.085
     74 H301       34.8360   22.1035   20.6210 H         1 SUB1        0.065
     75 H311       37.0117   22.6788   21.6293 H         1 SUB1        0.085
     76 H361       24.3986   31.5174   23.4486 H         1 SUB1        0.047
     77 H391       22.2173   27.0350   24.1203 H         1 SUB1        0.057
     78 H441       37.5806   27.4172   20.8939 H         1 SUB1        0.062
     79 H451       38.8680   28.3822   18.9729 H         1 SUB1        0.060
     80 H461       37.8737   30.2109   17.5807 H         1 SUB1        0.060
     81 H471       35.5927   31.0928   18.0992 H         1 SUB1        0.062
     82 H481       28.8299   30.7875   22.7155 H         1 SUB1        0.029
     83 H482       28.0866   31.5050   21.2398 H         1 SUB1        0.029
     84 H501       22.4289   32.6507   24.3115 H         1 SUB1        0.058
     85 H511       20.1058   32.5554   25.2606 H         1 SUB1        0.060
     86 H521       18.9699   30.3501   25.6044 H         1 SUB1        0.058
     87 H531       20.1392   28.2046   25.0137 H         1 SUB1        0.060
@<TRIPOS>BOND
     1    1    2 ar 
     2    6    1 ar 
     3    1   44 ar 
     4    3    2 ar 
     5    2    7 1  
     6    4    3 ar 
     7    5    4 ar 
     8    5    6 ar 
     9   22    5 1  
    10    6   47 ar 
    11    7   20 am 
    12    7   27 1  
    13    8    9 1  
    14   11    8 1  
    15    8   22 1  
    16    9   10 am 
    17   10   18 2  
    18   10   19 1  
    19   12   11 am 
    20   11   21 2  
    21   13   12 1  
    22   14   13 1  
    23   16   14 1  
    24   48   16 1  
    25   20   23 2  
    26   20   24 1  
    27   24   25 2  
    28   24   49 2  
    29   27   28 ar 
    30   28   29 ar 
    31   29   30 ar 
    32   31   30 ar 
    33   34   32 2  
    34   35   36 ar 
    35   35   40 ar 
    36   36   37 ar 
    37   37   38 ar 
    38   39   38 ar 
    39   40   39 ar 
    40   40   41 1  
    41   41   42 2  
    42   41   43 2  
    43   44   45 ar 
    44   46   45 ar 
    45   47   46 ar 
    46   50   51 ar 
    47   51   52 ar 
    48   53   52 ar 
    49   38   53 ar 
    50   37   50 ar 
    51   15   48 1  
    52   17   35 1  
    53   34   33 2  
    54   26   34 1  
    55   26   31 ar 
    56   27   26 ar 
    57   15   17 1  
    58    3   54 1  
    59    4   55 1  
    60    8   56 1  
    61    9   57 1  
    62   12   58 1  
    63   13   59 1  
    64   13   60 1  
    65   14   61 1  
    66   14   62 1  
    67   15   63 1  
    68   15   64 1  
    69   16   65 1  
    70   16   66 1  
    71   19   67 1  
    72   19   68 1  
    73   19   69 1  
    74   22   70 1  
    75   22   71 1  
    76   28   72 1  
    77   29   73 1  
    78   30   74 1  
    79   31   75 1  
    80   36   76 1  
    81   39   77 1  
    82   44   78 1  
    83   45   79 1  
    84   46   80 1  
    85   47   81 1  
    86   48   82 1  
    87   48   83 1  
    88   50   84 1  
    89   51   85 1  
    90   52   86 1  
    91   53   87 1  
@<TRIPOS>SUBSTRUCTURE
     1 SUB1        1 GROUP

