1nny_ligand
  -I-interpret- 

 87 91  0  0  0  0  0  0  0  0999 V2000
   35.8290   28.7060   20.6170 C   0  0  0  0  0
   35.0780   28.1540   21.7250 C   0  0  0  0  0
   33.7560   28.6920   21.9980 C   0  0  0  0  0
   33.1890   29.7160   21.2280 C   0  0  0  0  0
   33.8940   30.2790   20.1290 C   0  0  0  0  0
   35.2420   29.7730   19.8100 C   0  0  0  0  0
   35.5230   27.1150   22.5750 N   0  0  0  0  0
   32.6040   30.8500   17.9680 C   0  0  0  0  0
   31.9840   31.9720   17.2520 N   0  0  0  0  0
   32.4630   32.3610   16.0380 C   0  0  0  0  0
   31.6270   29.6600   18.1900 C   0  0  0  0  0
   30.3010   29.9700   18.3220 N   0  0  0  0  0
   29.2820   28.9250   18.5490 C   0  0  0  0  0
   28.1650   29.2630   19.5950 C   0  0  0  0  0
   26.7080   30.6830   22.6340 C   0  0  0  0  0
   28.5960   29.4180   21.0680 C   0  0  0  0  0
   26.0100   29.4170   22.6970 O   0  0  0  0  0
   33.4110   31.8460   15.4450 O   0  0  0  0  0
   31.7040   33.5410   15.4330 C   0  0  0  0  0
   35.9230   27.4280   23.9130 C   0  0  0  0  0
   32.0770   28.5200   18.2470 O   0  0  0  0  0
   33.1950   31.3810   19.3220 C   0  0  0  0  0
   36.2070   26.5760   24.7490 O   0  0  0  0  0
   36.0340   28.8800   24.4110 C   0  0  0  0  0
   36.9470   29.6070   24.1070 O   0  0  0  0  0
   36.4960   24.7230   22.1330 C   0  0  0  0  0
   35.4460   25.7480   22.0880 C   0  0  0  0  0
   34.2040   25.3370   21.4860 C   0  0  0  0  0
   33.9860   24.0540   20.9710 C   0  0  0  0  0
   35.0010   23.0970   21.0220 C   0  0  0  0  0
   36.2310   23.4300   21.5940 C   0  0  0  0  0
   38.3950   23.9170   23.2220 O   0  0  0  0  0
   38.5090   26.0420   22.6250 O   0  5  0  0  0
   37.8690   24.8590   22.6960 C   0  0  0  0  0
   24.6760   29.3590   23.2360 C   0  0  0  0  0
   23.9370   30.5470   23.5910 C   0  0  0  0  0
   22.6210   30.4790   24.1220 C   0  0  0  0  0
   21.9760   29.1950   24.3210 C   0  0  0  0  0
   22.6860   28.0020   23.9780 C   0  0  0  0  0
   24.0170   28.0800   23.4460 C   0  0  0  0  0
   24.6810   26.8240   23.1260 C   0  0  0  0  0
   25.0080   26.0510   24.1660 O   0  5  0  0  0
   24.9170   26.5020   22.0000 O   0  0  0  0  0
   37.1450   28.2110   20.2980 C   0  0  0  0  0
   37.8780   28.7590   19.2030 C   0  0  0  0  0
   37.3130   29.7990   18.4120 C   0  0  0  0  0
   36.0110   30.3010   18.7100 C   0  0  0  0  0
   28.0870   30.6390   21.9180 C   0  0  0  0  0
   35.0250   29.2820   25.2020 O   0  5  0  0  0
   21.9420   31.6940   24.4620 C   0  0  0  0  0
   20.6210   31.6380   25.0000 C   0  0  0  0  0
   19.9740   30.3790   25.1970 C   0  0  0  0  0
   20.6380   29.1550   24.8620 C   0  0  0  0  0
   33.1880   28.2864   22.8274 H   0  0  0  0  0
   32.1994   30.0841   21.4734 H   0  0  0  0  0
   33.4467   30.4809   17.3650 H   0  0  0  0  0
   31.2065   32.4526   17.6576 H   0  0  0  0  0
   30.0150   30.9264   18.2634 H   0  0  0  0  0
   28.7798   28.7227   17.5915 H   0  0  0  0  0
   29.7944   28.0182   18.9027 H   0  0  0  0  0
   27.7006   30.2144   19.2965 H   0  0  0  0  0
   27.4188   28.4554   19.5641 H   0  0  0  0  0
   26.8634   31.0262   23.6674 H   0  0  0  0  0
   26.0598   31.3912   22.0971 H   0  0  0  0  0
   28.2615   28.5151   21.5997 H   0  0  0  0  0
   29.6944   29.4746   21.0794 H   0  0  0  0  0
   32.1498   33.7922   14.4592 H   0  0  0  0  0
   30.6480   33.2714   15.2846 H   0  0  0  0  0
   31.7782   34.4148   16.0969 H   0  0  0  0  0
   32.3677   31.7934   19.9181 H   0  0  0  0  0
   33.9220   32.1734   19.0907 H   0  0  0  0  0
   33.3967   26.0582   21.4288 H   0  0  0  0  0
   33.0273   23.8030   20.5317 H   0  0  0  0  0
   34.8360   22.1035   20.6210 H   0  0  0  0  0
   37.0117   22.6788   21.6293 H   0  0  0  0  0
   24.3986   31.5174   23.4486 H   0  0  0  0  0
   22.2173   27.0350   24.1203 H   0  0  0  0  0
   37.5806   27.4172   20.8939 H   0  0  0  0  0
   38.8680   28.3822   18.9729 H   0  0  0  0  0
   37.8737   30.2109   17.5807 H   0  0  0  0  0
   35.5927   31.0928   18.0992 H   0  0  0  0  0
   28.8299   30.7875   22.7155 H   0  0  0  0  0
   28.0866   31.5050   21.2398 H   0  0  0  0  0
   22.4289   32.6507   24.3115 H   0  0  0  0  0
   20.1058   32.5554   25.2606 H   0  0  0  0  0
   18.9699   30.3501   25.6044 H   0  0  0  0  0
   20.1392   28.2046   25.0137 H   0  0  0  0  0
  1  2  4  0  0  0
  6  1  4  0  0  0
  1 44  4  0  0  0
  3  2  4  0  0  0
  2  7  1  0  0  0
  4  3  4  0  0  0
  5  4  4  0  0  0
  5  6  4  0  0  0
 22  5  1  0  0  0
  6 47  4  0  0  0
  7 20  1  0  0  0
  7 27  1  0  0  0
  8  9  1  0  0  0
 11  8  1  0  0  0
  8 22  1  0  0  0
  9 10  1  0  0  0
 10 18  2  0  0  0
 10 19  1  0  0  0
 12 11  1  0  0  0
 11 21  2  0  0  0
 13 12  1  0  0  0
 14 13  1  0  0  0
 16 14  1  0  0  0
 48 16  1  0  0  0
 20 23  2  0  0  0
 20 24  1  0  0  0
 24 25  2  0  0  0
 24 49  1  0  0  0
 27 28  4  0  0  0
 28 29  4  0  0  0
 29 30  4  0  0  0
 31 30  4  0  0  0
 34 32  2  0  0  0
 35 36  4  0  0  0
 35 40  4  0  0  0
 36 37  4  0  0  0
 37 38  4  0  0  0
 39 38  4  0  0  0
 40 39  4  0  0  0
 40 41  1  0  0  0
 41 42  1  0  0  0
 41 43  2  0  0  0
 44 45  4  0  0  0
 46 45  4  0  0  0
 47 46  4  0  0  0
 50 51  4  0  0  0
 51 52  4  0  0  0
 53 52  4  0  0  0
 38 53  4  0  0  0
 37 50  4  0  0  0
 15 48  1  0  0  0
 17 35  1  0  0  0
 34 33  1  0  0  0
 26 34  1  0  0  0
 26 31  4  0  0  0
 27 26  4  0  0  0
 15 17  1  0  0  0
  3 54  1  0  0  0
  4 55  1  0  0  0
  8 56  1  0  0  0
  9 57  1  0  0  0
 12 58  1  0  0  0
 13 59  1  0  0  0
 13 60  1  0  0  0
 14 61  1  0  0  0
 14 62  1  0  0  0
 15 63  1  0  0  0
 15 64  1  0  0  0
 16 65  1  0  0  0
 16 66  1  0  0  0
 19 67  1  0  0  0
 19 68  1  0  0  0
 19 69  1  0  0  0
 22 70  1  0  0  0
 22 71  1  0  0  0
 28 72  1  0  0  0
 29 73  1  0  0  0
 30 74  1  0  0  0
 31 75  1  0  0  0
 36 76  1  0  0  0
 39 77  1  0  0  0
 44 78  1  0  0  0
 45 79  1  0  0  0
 46 80  1  0  0  0
 47 81  1  0  0  0
 48 82  1  0  0  0
 48 83  1  0  0  0
 50 84  1  0  0  0
 51 85  1  0  0  0
 52 86  1  0  0  0
 53 87  1  0  0  0
M  END
$$$$
