2g5u_ligand
  -I-interpret- 

 24 25  0  0  0  0  0  0  0  0999 V2000
   21.8070   42.9850   30.4750 O   0  0  0  0  0
   21.7490   42.9670   29.1080 C   0  0  0  0  0
   20.9760   43.9000   28.4170 C   0  0  0  0  0
   20.1810   44.9560   29.1470 Cl  0  0  0  0  0
   22.4640   42.0110   28.3890 C   0  0  0  0  0
   23.3150   40.9820   29.0900 Cl  0  0  0  0  0
   22.4050   41.9910   26.9910 C   0  0  0  0  0
   21.6330   42.9180   26.2800 C   0  0  0  0  0
   20.9220   43.8700   27.0190 C   0  0  0  0  0
   21.5770   42.8940   24.8760 C   0  0  0  0  0
   21.5670   41.6820   24.1730 C   0  0  0  0  0
   21.5230   44.0810   24.1390 C   0  0  0  0  0
   21.4670   44.0670   22.7400 C   0  0  0  0  0
   21.4180   45.3710   21.9790 Cl  0  0  0  0  0
   21.4600   42.8490   22.0580 C   0  0  0  0  0
   21.4000   42.8190   20.6910 O   0  0  0  0  0
   21.5090   41.6530   22.7730 C   0  0  0  0  0
   21.4980   40.3310   22.0370 Cl  0  0  0  0  0
   22.3810   42.2782   30.7791 H   0  0  0  0  0
   22.9720   41.2378   26.4439 H   0  0  0  0  0
   20.3121   44.6050   26.4937 H   0  0  0  0  0
   21.6051   40.7433   24.7258 H   0  0  0  0  0
   21.5245   45.0362   24.6640 H   0  0  0  0  0
   21.4041   41.9069   20.3916 H   0  0  0  0  0
  1  2  1  0  0  0
  2  3  4  0  0  0
  2  5  4  0  0  0
  3  4  1  0  0  0
  3  9  4  0  0  0
  5  6  1  0  0  0
  5  7  4  0  0  0
  7  8  4  0  0  0
  8  9  4  0  0  0
  8 10  1  0  0  0
 10 11  4  0  0  0
 10 12  4  0  0  0
 11 17  4  0  0  0
 12 13  4  0  0  0
 13 14  1  0  0  0
 13 15  4  0  0  0
 15 16  1  0  0  0
 15 17  4  0  0  0
 17 18  1  0  0  0
  1 19  1  0  0  0
  7 20  1  0  0  0
  9 21  1  0  0  0
 11 22  1  0  0  0
 12 23  1  0  0  0
 16 24  1  0  0  0
M  END
$$$$
