### 
### Created by X-TOOL on Sun Jun  3 12:35:11 2007
### 

@<TRIPOS>MOLECULE
2g5u_ligand
   24    25     1     0     0
SMALL
GAST_HUCK


@<TRIPOS>ATOM
      1 O2         21.8070   42.9850   30.4750 O.3       1 SUB1       -0.331
      2 C9         21.7490   42.9670   29.1080 C.ar      1 SUB1        0.116
      3 C8         20.9760   43.9000   28.4170 C.ar      1 SUB1        0.069
      4 CL2        20.1810   44.9560   29.1470 Cl        1 SUB1       -0.079
      5 C10        22.4640   42.0110   28.3890 C.ar      1 SUB1        0.069
      6 CL4        23.3150   40.9820   29.0900 Cl        1 SUB1       -0.079
      7 C11        22.4050   41.9910   26.9910 C.ar      1 SUB1       -0.050
      8 C12        21.6330   42.9180   26.2800 C.ar      1 SUB1       -0.033
      9 C7         20.9220   43.8700   27.0190 C.ar      1 SUB1       -0.050
     10 C3         21.5770   42.8940   24.8760 C.ar      1 SUB1       -0.033
     11 C2         21.5670   41.6820   24.1730 C.ar      1 SUB1       -0.050
     12 C4         21.5230   44.0810   24.1390 C.ar      1 SUB1       -0.050
     13 C5         21.4670   44.0670   22.7400 C.ar      1 SUB1        0.069
     14 CL5        21.4180   45.3710   21.9790 Cl        1 SUB1       -0.079
     15 C6         21.4600   42.8490   22.0580 C.ar      1 SUB1        0.116
     16 O1         21.4000   42.8190   20.6910 O.3       1 SUB1       -0.331
     17 C1         21.5090   41.6530   22.7730 C.ar      1 SUB1        0.069
     18 CL1        21.4980   40.3310   22.0370 Cl        1 SUB1       -0.079
     19 H          22.3810   42.2782   30.7791 H         1 SUB1        0.249
     20 H          22.9720   41.2378   26.4439 H         1 SUB1        0.059
     21 H          20.3121   44.6050   26.4937 H         1 SUB1        0.059
     22 H          21.6051   40.7433   24.7258 H         1 SUB1        0.059
     23 H          21.5245   45.0362   24.6640 H         1 SUB1        0.059
     24 H          21.4041   41.9069   20.3916 H         1 SUB1        0.249
@<TRIPOS>BOND
     1    1    2 1  
     2    2    3 ar 
     3    2    5 ar 
     4    3    4 1  
     5    3    9 ar 
     6    5    6 1  
     7    5    7 ar 
     8    7    8 ar 
     9    8    9 ar 
    10    8   10 1  
    11   10   11 ar 
    12   10   12 ar 
    13   11   17 ar 
    14   12   13 ar 
    15   13   14 1  
    16   13   15 ar 
    17   15   16 1  
    18   15   17 ar 
    19   17   18 1  
    20    1   19 1  
    21    7   20 1  
    22    9   21 1  
    23   11   22 1  
    24   12   23 1  
    25   16   24 1  
@<TRIPOS>SUBSTRUCTURE
     1 SUB1        1 GROUP

