1vjj_ligand
  -I-interpret- 

 40 42  0  0  0  0  0  0  0  0999 V2000
  -13.3360  -11.0470  -20.3200 P   0  0  0  0  0
  -12.9220  -10.2690  -19.1100 O   0  0  0  0  0
  -14.0330  -12.3760  -20.0090 O   0  5  0  0  0
  -12.1670  -11.2390  -21.3230 O   0  5  0  0  0
  -14.4650  -10.1200  -21.1130 O   0  0  0  0  0
  -15.2740  -10.4850  -22.3830 P   0  0  0  0  0
  -16.7220  -10.6330  -22.0740 O   0  0  0  0  0
  -14.6090  -11.6820  -23.0490 O   0  5  0  0  0
  -15.0220   -9.2210  -23.3600 O   0  0  0  0  0
  -15.5650   -7.9490  -23.0190 C   0  0  0  0  0
  -14.6430   -6.8100  -23.3600 C   0  0  0  0  0
  -14.9380   -5.8680  -22.3050 O   0  0  0  0  0
  -13.1340   -7.1330  -23.3080 C   0  0  0  0  0
  -12.5810   -6.3420  -24.4140 O   0  0  0  0  0
  -12.6610   -6.5760  -21.9860 C   0  0  0  0  0
  -11.3760   -6.0360  -22.0620 O   0  0  0  0  0
  -13.7910   -5.6010  -21.5630 C   0  0  0  0  0
  -14.1980   -5.8070  -20.0780 N   0  0  0  0  0
  -14.1600   -6.9850  -19.3810 C   0  0  0  0  0
  -14.5860   -6.7950  -18.1330 N   0  0  0  0  0
  -14.9020   -5.4390  -18.0560 C   0  0  0  0  0
  -15.3990   -4.6760  -16.9790 C   0  0  0  0  0
  -15.6570   -5.1080  -15.8540 O   0  0  0  0  0
  -15.5950   -3.3130  -17.2970 N   0  0  0  0  0
  -15.3230   -2.7800  -18.5560 C   0  0  0  0  0
  -15.5450   -1.4710  -18.7550 N   0  0  0  0  0
  -14.8490   -3.5150  -19.5770 N   0  0  0  0  0
  -14.6660   -4.8220  -19.2520 C   0  0  0  0  0
  -15.7618   -7.9297  -21.9369 H   0  0  0  0  0
  -16.5095   -7.8122  -23.5660 H   0  0  0  0  0
  -14.8893   -6.4042  -24.3523 H   0  0  0  0  0
  -12.9119   -8.2057  -23.4077 H   0  0  0  0  0
  -11.6421   -6.4787  -24.4611 H   0  0  0  0  0
  -12.6163   -7.3915  -21.2491 H   0  0  0  0  0
  -11.3676   -5.3297  -22.6972 H   0  0  0  0  0
  -13.4584   -4.5650  -21.7245 H   0  0  0  0  0
  -13.8293   -7.9394  -19.7880 H   0  0  0  0  0
  -15.9449   -2.7029  -16.5861 H   0  0  0  0  0
  -15.3529   -1.0501  -19.6753 H   0  0  0  0  0
  -15.9074   -0.8876  -17.9874 H   0  0  0  0  0
  1  2  2  0  0  0
  1  3  1  0  0  0
  1  4  1  0  0  0
  1  5  1  0  0  0
  5  6  1  0  0  0
  6  7  2  0  0  0
  6  8  1  0  0  0
  6  9  1  0  0  0
  9 10  1  0  0  0
 10 11  1  0  0  0
 11 12  1  0  0  0
 11 13  1  0  0  0
 12 17  1  0  0  0
 13 14  1  0  0  0
 13 15  1  0  0  0
 15 16  1  0  0  0
 15 17  1  0  0  0
 17 18  1  0  0  0
 18 19  1  0  0  0
 18 28  1  0  0  0
 19 20  2  0  0  0
 20 21  1  0  0  0
 21 22  1  0  0  0
 21 28  2  0  0  0
 22 23  2  0  0  0
 22 24  1  0  0  0
 24 25  1  0  0  0
 25 26  1  0  0  0
 25 27  2  0  0  0
 27 28  1  0  0  0
 10 29  1  0  0  0
 10 30  1  0  0  0
 11 31  1  0  0  0
 13 32  1  0  0  0
 14 33  1  0  0  0
 15 34  1  0  0  0
 16 35  1  0  0  0
 17 36  1  0  0  0
 19 37  1  0  0  0
 24 38  1  0  0  0
 26 39  1  0  0  0
 26 40  1  0  0  0
M  END
$$$$
