### 
### Created by X-TOOL on Mon Oct 24 23:14:15 2005
### 

@<TRIPOS>MOLECULE
1vjj_ligand
   40    42     1     0     0
SMALL
GAST_HUCK


@<TRIPOS>ATOM
      1 PB        -13.3360  -11.0470  -20.3200 P.3       1 SUB1        0.158
      2 O1B       -12.9220  -10.2690  -19.1100 O.co2     1 SUB1       -0.616
      3 O2B       -14.0330  -12.3760  -20.0090 O.co2     1 SUB1       -0.616
      4 O3B       -12.1670  -11.2390  -21.3230 O.co2     1 SUB1       -0.616
      5 O3A       -14.4650  -10.1200  -21.1130 O.3       1 SUB1       -0.257
      6 PA        -15.2740  -10.4850  -22.3830 P.3       1 SUB1        0.372
      7 O1A       -16.7220  -10.6330  -22.0740 O.co2     1 SUB1       -0.457
      8 O2A       -14.6090  -11.6820  -23.0490 O.co2     1 SUB1       -0.457
      9 O5        -15.0220   -9.2210  -23.3600 O.3       1 SUB1       -0.253
     10 C5        -15.5650   -7.9490  -23.0190 C.3       1 SUB1        0.111
     11 C4        -14.6430   -6.8100  -23.3600 C.3       1 SUB1        0.119
     12 O4        -14.9380   -5.8680  -22.3050 O.3       1 SUB1       -0.336
     13 C3        -13.1340   -7.1330  -23.3080 C.3       1 SUB1        0.115
     14 O3        -12.5810   -6.3420  -24.4140 O.3       1 SUB1       -0.386
     15 C2        -12.6610   -6.5760  -21.9860 C.3       1 SUB1        0.139
     16 O2        -11.3760   -6.0360  -22.0620 O.3       1 SUB1       -0.384
     17 C1        -13.7910   -5.6010  -21.5630 C.3       1 SUB1        0.199
     18 N9        -14.1980   -5.8070  -20.0780 N.pl3     1 SUB1       -0.210
     19 C8        -14.1600   -6.9850  -19.3810 C.2       1 SUB1        0.096
     20 N7        -14.5860   -6.7950  -18.1330 N.2       1 SUB1       -0.324
     21 C5        -14.9020   -5.4390  -18.0560 C.2       1 SUB1        0.093
     22 C6        -15.3990   -4.6760  -16.9790 C.2       1 SUB1        0.213
     23 O6        -15.6570   -5.1080  -15.8540 O.2       1 SUB1       -0.409
     24 N1        -15.5950   -3.3130  -17.2970 N.am      1 SUB1       -0.184
     25 C2        -15.3230   -2.7800  -18.5560 C.2       1 SUB1        0.234
     26 N2        -15.5450   -1.4710  -18.7550 N.pl3     1 SUB1       -0.281
     27 N3        -14.8490   -3.5150  -19.5770 N.2       1 SUB1       -0.276
     28 C4        -14.6660   -4.8220  -19.2520 C.2       1 SUB1        0.116
     29 H101      -15.7618   -7.9297  -21.9369 H         1 SUB1        0.065
     30 H102      -16.5095   -7.8122  -23.5660 H         1 SUB1        0.065
     31 H111      -14.8893   -6.4042  -24.3523 H         1 SUB1        0.065
     32 H131      -12.9119   -8.2057  -23.4077 H         1 SUB1        0.065
     33 H141      -11.6421   -6.4787  -24.4611 H         1 SUB1        0.210
     34 H151      -12.6163   -7.3915  -21.2491 H         1 SUB1        0.068
     35 H161      -11.3676   -5.3297  -22.6972 H         1 SUB1        0.210
     36 H171      -13.4584   -4.5650  -21.7245 H         1 SUB1        0.100
     37 H191      -13.8293   -7.9394  -19.7880 H         1 SUB1        0.118
     38 H241      -15.9449   -2.7029  -16.5861 H         1 SUB1        0.252
     39 H261      -15.3529   -1.0501  -19.6753 H         1 SUB1        0.190
     40 H262      -15.9074   -0.8876  -17.9874 H         1 SUB1        0.190
@<TRIPOS>BOND
     1    1    2 2  
     2    1    3 2  
     3    1    4 2  
     4    1    5 1  
     5    5    6 1  
     6    6    7 2  
     7    6    8 2  
     8    6    9 1  
     9    9   10 1  
    10   10   11 1  
    11   11   12 1  
    12   11   13 1  
    13   12   17 1  
    14   13   14 1  
    15   13   15 1  
    16   15   16 1  
    17   15   17 1  
    18   17   18 1  
    19   18   19 1  
    20   18   28 1  
    21   19   20 2  
    22   20   21 1  
    23   21   22 1  
    24   21   28 2  
    25   22   23 2  
    26   22   24 am 
    27   24   25 1  
    28   25   26 1  
    29   25   27 2  
    30   27   28 1  
    31   10   29 1  
    32   10   30 1  
    33   11   31 1  
    34   13   32 1  
    35   14   33 1  
    36   15   34 1  
    37   16   35 1  
    38   17   36 1  
    39   19   37 1  
    40   24   38 1  
    41   26   39 1  
    42   26   40 1  
@<TRIPOS>SUBSTRUCTURE
     1 SUB1        1 GROUP

