### 
### Created by X-TOOL on Mon Oct 24 22:38:59 2005
### 

@<TRIPOS>MOLECULE
1jt1_ligand
   28    28     1     0     0
SMALL
GAST_HUCK


@<TRIPOS>ATOM
      1 O2          5.3330   -5.8560   21.0830 O.co2     1 SUB1       -0.564
      2 C9          5.5950   -6.0160   19.8710 C.2       1 SUB1        0.053
      3 O3          4.7630   -6.2200   18.9810 O.co2     1 SUB1       -0.564
      4 C8          7.0410   -6.1420   19.4860 C.3       1 SUB1        0.084
      5 C7          7.2810   -7.4370   18.7230 C.3       1 SUB1       -0.016
      6 C6          8.5890   -7.1950   18.0110 C.3       1 SUB1       -0.027
      7 C5          8.4920   -5.7250   17.6040 C.3       1 SUB1        0.038
      8 N           7.8740   -5.0940   18.7700 N.am      1 SUB1       -0.256
      9 C4          7.8930   -3.7300   18.9410 C.2       1 SUB1        0.185
     10 O1          6.9850   -3.1660   19.5260 O.2       1 SUB1       -0.396
     11 C2          9.0070   -2.9050   18.1980 C.3       1 SUB1        0.055
     12 C3          8.6750   -2.6310   16.7600 C.3       1 SUB1       -0.045
     13 C1          9.4530   -1.6280   18.9340 C.3       1 SUB1        0.010
     14 S          11.1410   -1.0070   18.4700 S.3       1 SUB1       -0.176
     15 H41         7.5494   -6.2381   20.4567 H         1 SUB1        0.078
     16 H51         7.3721   -8.2922   19.4088 H         1 SUB1        0.032
     17 H52         6.4786   -7.6244   17.9943 H         1 SUB1        0.032
     18 H61         9.4462   -7.3528   18.6820 H         1 SUB1        0.029
     19 H62         8.6861   -7.8350   17.1217 H         1 SUB1        0.029
     20 H71         9.4871   -5.2951   17.4174 H         1 SUB1        0.053
     21 H72         7.8556   -5.5969   16.7160 H         1 SUB1        0.053
     22 H111        9.8979   -3.5501   18.1893 H         1 SUB1        0.054
     23 H121        9.4943   -2.0535   16.3070 H         1 SUB1        0.026
     24 H122        8.5607   -3.5791   16.2142 H         1 SUB1        0.026
     25 H123        7.7457   -2.0461   16.6944 H         1 SUB1        0.026
     26 H131        8.7328   -0.8273   18.7102 H         1 SUB1        0.040
     27 H132        9.4615   -1.8335   20.0146 H         1 SUB1        0.040
     28 H141       11.3478   -0.1733   18.9976 H         1 SUB1        0.102
@<TRIPOS>BOND
     1    1    2 2  
     2    2    3 2  
     3    2    4 1  
     4    4    5 1  
     5    4    8 1  
     6    5    6 1  
     7    6    7 1  
     8    7    8 1  
     9    8    9 am 
    10    9   10 2  
    11    9   11 1  
    12   11   12 1  
    13   11   13 1  
    14   13   14 1  
    15    4   15 1  
    16    5   16 1  
    17    5   17 1  
    18    6   18 1  
    19    6   19 1  
    20    7   20 1  
    21    7   21 1  
    22   11   22 1  
    23   12   23 1  
    24   12   24 1  
    25   12   25 1  
    26   13   26 1  
    27   13   27 1  
    28   14   28 1  
@<TRIPOS>SUBSTRUCTURE
     1 SUB1        1 GROUP

