1jt1_ligand
  -I-interpret- 

 28 28  0  0  0  0  0  0  0  0999 V2000
    5.3330   -5.8560   21.0830 O   0  5  0  0  0
    5.5950   -6.0160   19.8710 C   0  0  0  0  0
    4.7630   -6.2200   18.9810 O   0  0  0  0  0
    7.0410   -6.1420   19.4860 C   0  0  0  0  0
    7.2810   -7.4370   18.7230 C   0  0  0  0  0
    8.5890   -7.1950   18.0110 C   0  0  0  0  0
    8.4920   -5.7250   17.6040 C   0  0  0  0  0
    7.8740   -5.0940   18.7700 N   0  0  0  0  0
    7.8930   -3.7300   18.9410 C   0  0  0  0  0
    6.9850   -3.1660   19.5260 O   0  0  0  0  0
    9.0070   -2.9050   18.1980 C   0  0  0  0  0
    8.6750   -2.6310   16.7600 C   0  0  0  0  0
    9.4530   -1.6280   18.9340 C   0  0  0  0  0
   11.1410   -1.0070   18.4700 S   0  0  0  0  0
    7.5494   -6.2381   20.4567 H   0  0  0  0  0
    7.3721   -8.2922   19.4088 H   0  0  0  0  0
    6.4786   -7.6244   17.9943 H   0  0  0  0  0
    9.4462   -7.3528   18.6820 H   0  0  0  0  0
    8.6861   -7.8350   17.1217 H   0  0  0  0  0
    9.4871   -5.2951   17.4174 H   0  0  0  0  0
    7.8556   -5.5969   16.7160 H   0  0  0  0  0
    9.8979   -3.5501   18.1893 H   0  0  0  0  0
    9.4943   -2.0535   16.3070 H   0  0  0  0  0
    8.5607   -3.5791   16.2142 H   0  0  0  0  0
    7.7457   -2.0461   16.6944 H   0  0  0  0  0
    8.7328   -0.8273   18.7102 H   0  0  0  0  0
    9.4615   -1.8335   20.0146 H   0  0  0  0  0
   11.3478   -0.1733   18.9976 H   0  0  0  0  0
  1  2  1  0  0  0
  2  3  2  0  0  0
  2  4  1  0  0  0
  4  5  1  0  0  0
  4  8  1  0  0  0
  5  6  1  0  0  0
  6  7  1  0  0  0
  7  8  1  0  0  0
  8  9  1  0  0  0
  9 10  2  0  0  0
  9 11  1  0  0  0
 11 12  1  0  0  0
 11 13  1  0  0  0
 13 14  1  0  0  0
  4 15  1  0  0  0
  5 16  1  0  0  0
  5 17  1  0  0  0
  6 18  1  0  0  0
  6 19  1  0  0  0
  7 20  1  0  0  0
  7 21  1  0  0  0
 11 22  1  0  0  0
 12 23  1  0  0  0
 12 24  1  0  0  0
 12 25  1  0  0  0
 13 26  1  0  0  0
 13 27  1  0  0  0
 14 28  1  0  0  0
M  END
$$$$
