### 
### Created by X-TOOL on Tue Oct 25 00:11:30 2005
### 

@<TRIPOS>MOLECULE
1u1b_ligand
   74    78     1     0     0
SMALL
GAST_HUCK


@<TRIPOS>ATOM
      1 PA        -30.2210  -29.4080   17.2920 P.3       1 SUB1        0.301
      2 O1A       -31.3890  -30.1680   17.9270 O.co2     1 SUB1       -0.533
      3 O2A       -30.3730  -29.0440   15.8110 O.co2     1 SUB1       -0.533
      4 O5        -29.9020  -28.0700   18.0980 O.3       1 SUB1       -0.319
      5 PB        -28.1590  -30.8560   18.7490 P.3       1 SUB1        0.302
      6 O1B       -27.0860  -29.9510   19.2030 O.co2     1 SUB1       -0.533
      7 O2B       -29.2100  -31.2550   19.7120 O.co2     1 SUB1       -0.533
      8 O3A       -28.8710  -30.2140   17.4950 O.3       1 SUB1       -0.249
      9 PG        -34.8930  -26.7760   18.1550 P.3       1 SUB1        0.206
     10 O1G       -34.7020  -26.9210   19.6630 O.co2     1 SUB1       -0.535
     11 O2G       -36.1220  -25.9620   17.7740 O.co2     1 SUB1       -0.535
     12 O3G       -34.8950  -28.1500   17.4600 O.co2     1 SUB1       -0.535
     13 N9A       -29.7730  -23.9820   16.1300 N.pl3     1 SUB1       -0.192
     14 C4A       -28.8580  -24.4270   15.1830 C.ar      1 SUB1        0.161
     15 N3A       -28.7370  -25.6860   14.6560 N.ar      1 SUB1       -0.271
     16 C2A       -27.7210  -25.7640   13.7410 C.ar      1 SUB1        0.053
     17 N1A       -26.8770  -24.7630   13.3350 N.ar      1 SUB1       -0.270
     18 C6A       -27.0260  -23.5070   13.8830 C.ar      1 SUB1        0.130
     19 N6A       -26.2020  -22.5460   13.4760 N.pl3     1 SUB1       -0.315
     20 C5A       -28.0660  -23.3020   14.8620 C.ar      1 SUB1        0.105
     21 N7A       -28.4730  -22.1930   15.5880 N.2       1 SUB1       -0.296
     22 C8A       -29.4760  -22.6410   16.3160 C.2       1 SUB1        0.112
     23 C5        -30.8270  -27.5380   19.0200 C.3       1 SUB1        0.089
     24 C4        -31.4240  -26.2850   18.4610 C.3       1 SUB1        0.121
     25 O4        -30.3690  -25.3940   17.9690 O.3       1 SUB1       -0.336
     26 C1        -30.8710  -24.6990   16.8490 C.3       1 SUB1        0.201
     27 C2        -31.6670  -25.7980   16.1180 C.3       1 SUB1        0.143
     28 O2        -32.5430  -25.2970   15.1170 O.3       1 SUB1       -0.383
     29 C3        -32.3640  -26.5250   17.2780 C.3       1 SUB1        0.136
     30 O3        -33.6160  -25.9150   17.6040 O.3       1 SUB1       -0.314
     31 O5        -25.7810  -33.8130   14.1660 O.3       1 SUB1       -0.320
     32 C5        -27.0380  -33.6820   14.8750 C.3       1 SUB1        0.095
     33 C4        -26.8140  -33.6990   16.3790 C.3       1 SUB1        0.118
     34 O4        -25.5540  -34.3540   16.6930 O.3       1 SUB1       -0.339
     35 C1        -24.8450  -33.5810   17.6400 C.3       1 SUB1        0.176
     36 C2        -25.2930  -32.1420   17.4180 C.3       1 SUB1        0.034
     37 C3        -26.7470  -32.3010   17.0050 C.3       1 SUB1        0.104
     38 O3        -27.5880  -32.2610   18.1600 O.3       1 SUB1       -0.316
     39 PD        -25.4210  -32.9050   12.8410 P.3       1 SUB1        0.205
     40 O1D       -24.3250  -33.6930   12.0980 O.co2     1 SUB1       -0.535
     41 O2D       -24.9230  -31.5400   13.3680 O.co2     1 SUB1       -0.535
     42 O3D       -26.7240  -32.7970   12.0290 O.co2     1 SUB1       -0.535
     43 N1T       -23.3680  -33.7610   17.4380 N.am      1 SUB1       -0.174
     44 C6T       -22.7850  -33.7800   16.1450 C.2       1 SUB1        0.052
     45 C2T       -22.5700  -33.9130   18.5980 C.2       1 SUB1        0.326
     46 O2T       -23.0220  -33.9050   19.7200 O.2       1 SUB1       -0.384
     47 N3T       -21.2080  -34.0720   18.3510 N.am      1 SUB1       -0.186
     48 C4T       -20.5700  -34.0950   17.0950 C.2       1 SUB1        0.193
     49 O4T       -19.3450  -34.2320   17.0580 O.2       1 SUB1       -0.408
     50 C5T       -21.4570  -33.9380   15.9370 C.2       1 SUB1        0.023
     51 CM5       -20.9140  -33.9420   14.5430 C.3       1 SUB1       -0.044
     52 H161      -27.5655  -26.7340   13.2827 H         1 SUB1        0.100
     53 H191      -26.2863  -21.5962   13.8654 H         1 SUB1        0.182
     54 H192      -25.4794  -22.7514   12.7713 H         1 SUB1        0.182
     55 H221      -30.0279  -22.0076   17.0090 H         1 SUB1        0.135
     56 H231      -30.3125  -27.3091   19.9649 H         1 SUB1        0.062
     57 H232      -31.6242  -28.2730   19.2052 H         1 SUB1        0.062
     58 H241      -31.9839  -25.7851   19.2651 H         1 SUB1        0.065
     59 H261      -31.5818  -23.9265   17.1777 H         1 SUB1        0.100
     60 H271      -30.9698  -26.4893   15.6220 H         1 SUB1        0.068
     61 H281      -33.1727  -24.7074   15.5150 H         1 SUB1        0.210
     62 H291      -32.4978  -27.5948   17.0598 H         1 SUB1        0.070
     63 H321      -27.6966  -34.5187   14.5991 H         1 SUB1        0.064
     64 H322      -27.5143  -32.7317   14.5921 H         1 SUB1        0.064
     65 H331      -27.6424  -34.2555   16.8416 H         1 SUB1        0.065
     66 H351      -25.1059  -33.8967   18.6609 H         1 SUB1        0.096
     67 H361      -24.7052  -31.6626   16.6214 H         1 SUB1        0.035
     68 H362      -25.2062  -31.5530   18.3429 H         1 SUB1        0.035
     69 H371      -27.0463  -31.5235   16.2867 H         1 SUB1        0.066
     70 H441      -23.4359  -33.6620   15.2799 H         1 SUB1        0.101
     71 H471      -20.6195  -34.1817   19.1520 H         1 SUB1        0.226
     72 H511      -21.7394  -33.8118   13.8276 H         1 SUB1        0.030
     73 H512      -20.4085  -34.8995   14.3491 H         1 SUB1        0.030
     74 H513      -20.1950  -33.1176   14.4272 H         1 SUB1        0.030
@<TRIPOS>BOND
     1    1    2 2  
     2    1    3 2  
     3    1    4 1  
     4    8    1 1  
     5    4   23 1  
     6    5    6 2  
     7    5    7 2  
     8    5    8 1  
     9   38    5 1  
    10    9   10 2  
    11    9   11 2  
    12    9   12 2  
    13   30    9 1  
    14   13   14 1  
    15   13   22 1  
    16   26   13 1  
    17   14   15 ar 
    18   14   20 ar 
    19   15   16 ar 
    20   16   17 ar 
    21   18   17 ar 
    22   18   19 1  
    23   20   18 ar 
    24   21   20 1  
    25   22   21 2  
    26   23   24 1  
    27   24   25 1  
    28   24   29 1  
    29   25   26 1  
    30   27   26 1  
    31   27   28 1  
    32   29   27 1  
    33   29   30 1  
    34   32   31 1  
    35   31   39 1  
    36   33   32 1  
    37   33   34 1  
    38   37   33 1  
    39   35   34 1  
    40   36   35 1  
    41   35   43 1  
    42   37   36 1  
    43   37   38 1  
    44   39   40 2  
    45   39   41 2  
    46   39   42 2  
    47   43   44 1  
    48   43   45 am 
    49   44   50 2  
    50   45   46 2  
    51   45   47 am 
    52   47   48 am 
    53   48   49 2  
    54   48   50 1  
    55   50   51 1  
    56   16   52 1  
    57   19   53 1  
    58   19   54 1  
    59   22   55 1  
    60   23   56 1  
    61   23   57 1  
    62   24   58 1  
    63   26   59 1  
    64   27   60 1  
    65   28   61 1  
    66   29   62 1  
    67   32   63 1  
    68   32   64 1  
    69   33   65 1  
    70   35   66 1  
    71   36   67 1  
    72   36   68 1  
    73   37   69 1  
    74   44   70 1  
    75   47   71 1  
    76   51   72 1  
    77   51   73 1  
    78   51   74 1  
@<TRIPOS>SUBSTRUCTURE
     1 SUB1        1 GROUP

