### 
### Created by X-TOOL on Mon Oct 24 22:39:01 2005
### 

@<TRIPOS>MOLECULE
1gi7_ligand
   31    33     1     0     0
SMALL
GAST_HUCK


@<TRIPOS>ATOM
      1 C1          8.9630    0.7940   25.0180 C.ar      1 SUB1        0.174
      2 C2          9.5610    1.0090   23.7500 C.ar      1 SUB1       -0.022
      3 C3          9.9900    2.2670   23.3380 C.ar      1 SUB1       -0.057
      4 C4          9.8150    3.3180   24.2040 C.ar      1 SUB1        0.032
      5 C5          9.2550    3.1780   25.4140 C.ar      1 SUB1        0.086
      6 C6          8.8170    1.9330   25.8500 C.ar      1 SUB1        0.015
      7 C7          8.5420   -0.4870   25.4260 C.cat     1 SUB1        0.311
      8 N1          7.8380   -0.6200   26.5240 N.pl3     1 SUB1       -0.201
      9 N2          8.8560   -1.5390   24.7120 N.pl3     1 SUB1       -0.201
     10 N3         10.1100    4.5660   24.1150 N.2       1 SUB1       -0.307
     11 N4          9.1890    4.3050   26.0850 N.pl3     1 SUB1       -0.250
     12 C8          9.7410    5.1530   25.2240 C.2       1 SUB1        0.144
     13 C1'         9.8790    6.5270   25.4620 C.ar      1 SUB1        0.093
     14 C2'         9.6770    7.0270   26.7400 C.ar      1 SUB1       -0.033
     15 C3'         9.8110    8.3740   26.9850 C.ar      1 SUB1       -0.041
     16 C4'        10.1480    9.2360   25.9560 C.ar      1 SUB1        0.003
     17 N5'        10.3390    8.7610   24.7400 N.ar      1 SUB1       -0.267
     18 C6'        10.2210    7.4720   24.4500 C.ar      1 SUB1        0.183
     19 O6'        10.3930    7.0970   23.3080 O.3       1 SUB1       -0.308
     20 H21         9.6879    0.1662   23.0802 H         1 SUB1        0.057
     21 H31        10.4471    2.4124   22.3659 H         1 SUB1        0.055
     22 H61         8.3625    1.8324   26.8289 H         1 SUB1        0.059
     23 H81         7.5277   -1.5543   26.8268 H         1 SUB1        0.192
     24 H82         7.5952    0.2098   27.0838 H         1 SUB1        0.192
     25 H91         9.4092   -1.4300   23.8501 H         1 SUB1        0.192
     26 H92         8.5497   -2.4754   25.0124 H         1 SUB1        0.192
     27 H111        8.8108    4.4836   27.0263 H         1 SUB1        0.230
     28 H141        9.4116    6.3513   27.5517 H         1 SUB1        0.075
     29 H151        9.6517    8.7625   27.9898 H         1 SUB1        0.063
     30 H161       10.2551   10.3023   26.1493 H         1 SUB1        0.082
     31 H191       10.2741    6.1555   23.2637 H         1 SUB1        0.257
@<TRIPOS>BOND
     1    7    1 1  
     2    1    6 ar 
     3    1    2 ar 
     4    2    3 ar 
     5    3    4 ar 
     6    4   10 1  
     7    5    4 ar 
     8    5   11 1  
     9    6    5 ar 
    10   11   12 1  
    11   12   13 1  
    12   10   12 2  
    13   13   18 ar 
    14   13   14 ar 
    15    2   20 1  
    16   14   15 ar 
    17    3   21 1  
    18   15   16 ar 
    19    6   22 1  
    20   17   16 ar 
    21    8   23 1  
    22   18   17 ar 
    23   18   19 1  
    24    7    9 1  
    25    7    8 1  
    26    8   24 1  
    27    9   25 1  
    28    9   26 1  
    29   11   27 1  
    30   14   28 1  
    31   15   29 1  
    32   16   30 1  
    33   19   31 1  
@<TRIPOS>SUBSTRUCTURE
     1 SUB1        1 GROUP

