2cex_ligand
  -I-interpret- 

 36 36  0  0  0  0  0  0  0  0999 V2000
   60.0290    5.2250   31.6300 C   0  0  0  0  0
   59.9210    5.5850   30.2390 C   0  0  0  0  0
   60.4480    6.7200   29.7340 C   0  0  0  0  0
   60.1720    7.0940   28.3010 C   0  0  0  0  0
   58.7190    6.6320   27.9480 C   0  0  0  0  0
   58.5400    5.1230   28.2350 C   0  0  0  0  0
   57.0920    4.5900   28.1780 C   0  0  0  0  0
   57.0160    3.1590   28.7470 C   0  0  0  0  0
   55.6390    2.5340   28.4890 C   0  0  0  0  0
   57.4830    7.8430   26.1120 C   0  0  0  0  0
   57.4020    7.9760   24.6210 C   0  0  0  0  0
   58.3270    6.8870   26.5570 N   0  0  0  0  0
   60.6640    4.2890   32.0610 O   0  0  0  0  0
   59.3500    5.8820   32.4270 O   0  5  0  0  0
   60.3220    8.5310   28.2080 O   0  0  0  0  0
   59.0830    4.6810   29.4900 O   0  0  0  0  0
   56.1010    5.4730   28.7950 O   0  0  0  0  0
   58.0180    2.3020   28.1700 O   0  0  0  0  0
   55.0310    3.0030   27.2750 O   0  0  0  0  0
   56.8380    8.5810   26.8440 O   0  0  0  0  0
   61.0692    7.3619   30.3587 H   0  0  0  0  0
   60.8542    6.6165   27.5977 H   0  0  0  0  0
   58.0712    7.2338   28.5853 H   0  0  0  0  0
   59.1086    4.7095   27.4020 H   0  0  0  0  0
   56.8222    4.5640   27.1222 H   0  0  0  0  0
   57.1899    3.2445   29.8196 H   0  0  0  0  0
   54.9868    2.8119   29.3170 H   0  0  0  0  0
   55.7741    1.4562   28.3989 H   0  0  0  0  0
   56.3726    7.8192   24.2989 H   0  0  0  0  0
   57.7276    8.9742   24.3283 H   0  0  0  0  0
   58.0472    7.2310   24.1555 H   0  0  0  0  0
   58.7361    6.2763   25.8498 H   0  0  0  0  0
   61.2239    8.7726   28.4313 H   0  0  0  0  0
   55.2203    5.1286   28.6299 H   0  0  0  0  0
   58.8872    2.6797   28.3231 H   0  0  0  0  0
   54.9164    3.9549   27.3228 H   0  0  0  0  0
  2  1  1  0  0  0
  1 13  2  0  0  0
  1 14  1  0  0  0
  3  2  2  0  0  0
 16  2  1  0  0  0
  4  3  1  0  0  0
  5  4  1  0  0  0
  4 15  1  0  0  0
  5  6  1  0  0  0
 12  5  1  0  0  0
  6  7  1  0  0  0
  6 16  1  0  0  0
  7  8  1  0  0  0
  7 17  1  0  0  0
  8  9  1  0  0  0
  8 18  1  0  0  0
  9 19  1  0  0  0
 10 11  1  0  0  0
 10 12  1  0  0  0
 10 20  2  0  0  0
  3 21  1  0  0  0
  4 22  1  0  0  0
  5 23  1  0  0  0
  6 24  1  0  0  0
  7 25  1  0  0  0
  8 26  1  0  0  0
  9 27  1  0  0  0
  9 28  1  0  0  0
 11 29  1  0  0  0
 11 30  1  0  0  0
 11 31  1  0  0  0
 12 32  1  0  0  0
 15 33  1  0  0  0
 17 34  1  0  0  0
 18 35  1  0  0  0
 19 36  1  0  0  0
M  END
$$$$
