### 
### Created by X-TOOL on Sun Jun  3 11:59:10 2007
### 

@<TRIPOS>MOLECULE
2cex_ligand
   36    36     1     0     0
SMALL
GAST_HUCK


@<TRIPOS>ATOM
      1 C1         60.0290    5.2250   31.6300 C.2       1 SUB1        0.180
      2 C2         59.9210    5.5850   30.2390 C.2       1 SUB1        0.287
      3 C3         60.4480    6.7200   29.7340 C.2       1 SUB1        0.137
      4 C4         60.1720    7.0940   28.3010 C.3       1 SUB1        0.177
      5 C5         58.7190    6.6320   27.9480 C.3       1 SUB1        0.139
      6 C6         58.5400    5.1230   28.2350 C.3       1 SUB1        0.178
      7 C7         57.0920    4.5900   28.1780 C.3       1 SUB1        0.124
      8 C8         57.0160    3.1590   28.7470 C.3       1 SUB1        0.108
      9 C9         55.6390    2.5340   28.4890 C.3       1 SUB1        0.073
     10 C10        57.4830    7.8430   26.1120 C.2       1 SUB1        0.174
     11 C11        57.4020    7.9760   24.6210 C.3       1 SUB1        0.026
     12 N5         58.3270    6.8870   26.5570 N.am      1 SUB1       -0.272
     13 O1A        60.6640    4.2890   32.0610 O.2       1 SUB1       -0.536
     14 O1B        59.3500    5.8820   32.4270 O.2       1 SUB1       -0.536
     15 O4         60.3220    8.5310   28.2080 O.3       1 SUB1       -0.349
     16 O6         59.0830    4.6810   29.4900 O.3       1 SUB1       -0.209
     17 O7         56.1010    5.4730   28.7950 O.3       1 SUB1       -0.385
     18 O8         58.0180    2.3020   28.1700 O.3       1 SUB1       -0.387
     19 O9         55.0310    3.0030   27.2750 O.3       1 SUB1       -0.392
     20 O10        56.8380    8.5810   26.8440 O.2       1 SUB1       -0.397
     21 H          61.0692    7.3619   30.3587 H         1 SUB1        0.175
     22 H          60.8542    6.6165   27.5977 H         1 SUB1        0.115
     23 H          58.0712    7.2338   28.5853 H         1 SUB1        0.069
     24 H          59.1086    4.7095   27.4020 H         1 SUB1        0.080
     25 H          56.8222    4.5640   27.1222 H         1 SUB1        0.066
     26 H          57.1899    3.2445   29.8196 H         1 SUB1        0.064
     27 H          54.9868    2.8119   29.3170 H         1 SUB1        0.058
     28 H          55.7741    1.4562   28.3989 H         1 SUB1        0.058
     29 H          56.3726    7.8192   24.2989 H         1 SUB1        0.047
     30 H          57.7276    8.9742   24.3283 H         1 SUB1        0.047
     31 H          58.0472    7.2310   24.1555 H         1 SUB1        0.047
     32 H          58.7361    6.2763   25.8498 H         1 SUB1        0.186
     33 H          61.2239    8.7726   28.4313 H         1 SUB1        0.220
     34 H          55.2203    5.1286   28.6299 H         1 SUB1        0.210
     35 H          58.8872    2.6797   28.3231 H         1 SUB1        0.210
     36 H          54.9164    3.9549   27.3228 H         1 SUB1        0.209
@<TRIPOS>BOND
     1    2    1 1  
     2    1   13 2  
     3    1   14 2  
     4    3    2 2  
     5   16    2 1  
     6    4    3 1  
     7    5    4 1  
     8    4   15 1  
     9    5    6 1  
    10   12    5 1  
    11    6    7 1  
    12    6   16 1  
    13    7    8 1  
    14    7   17 1  
    15    8    9 1  
    16    8   18 1  
    17    9   19 1  
    18   10   11 1  
    19   10   12 am 
    20   10   20 2  
    21    3   21 1  
    22    4   22 1  
    23    5   23 1  
    24    6   24 1  
    25    7   25 1  
    26    8   26 1  
    27    9   27 1  
    28    9   28 1  
    29   11   29 1  
    30   11   30 1  
    31   11   31 1  
    32   12   32 1  
    33   15   33 1  
    34   17   34 1  
    35   18   35 1  
    36   19   36 1  
@<TRIPOS>SUBSTRUCTURE
     1 SUB1        1 GROUP

