### 
### Created by X-TOOL on Mon Oct 24 22:40:21 2005
### 

@<TRIPOS>MOLECULE
1bwb_ligand
  106   114     1     0     0
SMALL
GAST_HUCK


@<TRIPOS>ATOM
      1 C1         -9.0420   15.6050   27.8390 C.2       1 SUB1        0.267
      2 C2         -9.7570   15.0700   30.1070 C.3       1 SUB1        0.069
      3 C3        -11.0390   16.7710   28.8040 C.3       1 SUB1        0.085
      4 C4        -10.7870   18.2520   28.5950 C.3       1 SUB1        0.108
      5 C5        -10.3760   18.4930   27.1600 C.3       1 SUB1        0.108
      6 C6         -8.9890   17.9470   26.9310 C.3       1 SUB1        0.085
      7 C7         -8.1860   15.9720   25.6140 C.3       1 SUB1        0.069
      8 C20        -9.7010   15.8250   31.4220 C.ar      1 SUB1       -0.015
      9 C21       -10.4150   15.3240   32.5200 C.ar      1 SUB1       -0.038
     10 C22       -10.3120   15.9610   33.7700 C.ar      1 SUB1        0.051
     11 C23        -9.5140   17.1040   33.9160 C.ar      1 SUB1       -0.048
     12 C24        -8.8030   17.6200   32.8190 C.ar      1 SUB1       -0.063
     13 C25        -8.9000   16.9770   31.5720 C.ar      1 SUB1       -0.054
     14 C26       -11.0140   15.4110   34.9690 C.2       1 SUB1        0.242
     15 C27       -11.6400   13.2390   36.0320 C.2       1 SUB1        0.241
     16 C9        -12.3590   12.4120   39.4450 C.ar      1 SUB1       -0.046
     17 C11       -12.5650   11.1030   39.9270 C.ar      1 SUB1       -0.079
     18 C13       -12.5130    9.9800   39.0690 C.ar      1 SUB1       -0.082
     19 C14       -12.2520   10.1240   37.6950 C.ar      1 SUB1       -0.070
     20 C28       -12.0390   11.4120   37.1680 C.ar      1 SUB1        0.009
     21 C29       -12.0920   12.5980   38.0730 C.ar      1 SUB1        0.073
     22 C31       -12.0980   16.1310   27.8600 C.3       1 SUB1        0.007
     23 C32       -12.8200   14.9380   28.4540 C.ar      1 SUB1       -0.041
     24 C33       -12.4750   13.6180   28.0700 C.ar      1 SUB1       -0.060
     25 C34       -13.1300   12.5150   28.6730 C.ar      1 SUB1       -0.069
     26 C35       -14.1310   12.7280   29.6550 C.ar      1 SUB1       -0.069
     27 C36       -14.4780   14.0460   30.0360 C.ar      1 SUB1       -0.069
     28 C37       -13.8230   15.1490   29.4330 C.ar      1 SUB1       -0.060
     29 C61        -7.9090   18.5140   27.8840 C.3       1 SUB1        0.007
     30 C62        -6.4910   18.3410   27.3890 C.ar      1 SUB1       -0.041
     31 C63        -6.0290   19.1400   26.3070 C.ar      1 SUB1       -0.060
     32 C64        -4.7370   18.9210   25.7860 C.ar      1 SUB1       -0.069
     33 C65        -3.9190   17.9200   26.3560 C.ar      1 SUB1       -0.069
     34 C66        -4.3740   17.1390   27.4400 C.ar      1 SUB1       -0.069
     35 C67        -5.6620   17.3430   27.9640 C.ar      1 SUB1       -0.060
     36 C70        -8.8580   16.3270   24.3140 C.ar      1 SUB1       -0.015
     37 C71        -8.0340   16.6240   23.2180 C.ar      1 SUB1       -0.038
     38 C72        -8.6230   16.9130   21.9660 C.ar      1 SUB1        0.051
     39 C73       -10.0270   16.8840   21.8110 C.ar      1 SUB1       -0.048
     40 C74       -10.8540   16.5800   22.9120 C.ar      1 SUB1       -0.063
     41 C75       -10.2680   16.3120   24.1630 C.ar      1 SUB1       -0.054
     42 C76        -7.7660   17.2930   20.8000 C.2       1 SUB1        0.242
     43 C77        -5.5670   16.8770   19.7070 C.2       1 SUB1        0.241
     44 C15        -4.7200   17.2430   16.2300 C.ar      1 SUB1       -0.046
     45 C8         -3.6620   16.5680   15.5730 C.ar      1 SUB1       -0.079
     46 C10        -2.7970   15.6900   16.2770 C.ar      1 SUB1       -0.082
     47 C12        -2.9600   15.4590   17.6660 C.ar      1 SUB1       -0.070
     48 C78        -4.0170   16.1140   18.3590 C.ar      1 SUB1        0.009
     49 C79        -4.9240   17.0340   17.6090 C.ar      1 SUB1        0.073
     50 N2         -9.8630   15.8850   28.8860 N.am      1 SUB1       -0.240
     51 N7         -8.8380   16.4740   26.8270 N.am      1 SUB1       -0.240
     52 N26       -11.2370   14.0870   34.9020 N.am      1 SUB1       -0.184
     53 N3        -11.8370   13.6880   37.2870 N.pl3     1 SUB1       -0.228
     54 N27       -11.7560   11.8990   35.9190 N.2       1 SUB1       -0.314
     55 N76        -6.4940   16.8450   20.8570 N.am      1 SUB1       -0.184
     56 N1         -5.8440   17.4670   18.5190 N.pl3     1 SUB1       -0.228
     57 N77        -4.4850   16.0880   19.6580 N.2       1 SUB1       -0.314
     58 O1         -8.4620   14.5280   27.8080 O.2       1 SUB1       -0.400
     59 O4        -12.0010   18.9050   28.8790 O.3       1 SUB1       -0.387
     60 O5        -10.3070   19.8600   26.8900 O.3       1 SUB1       -0.387
     61 O26       -11.3210   16.0840   35.9370 O.2       1 SUB1       -0.369
     62 O76        -8.1920   17.9340   19.8560 O.2       1 SUB1       -0.369
     63 H21        -8.8400   14.4676   30.0282 H         1 SUB1        0.068
     64 H22       -10.6316   14.4038   30.1412 H         1 SUB1        0.068
     65 H31       -11.4889   16.7281   29.8069 H         1 SUB1        0.061
     66 H41        -9.9958   18.6077   29.2714 H         1 SUB1        0.064
     67 H51       -11.0960   18.0079   26.4845 H         1 SUB1        0.064
     68 H61        -8.7216   18.3250   25.9332 H         1 SUB1        0.061
     69 H71        -8.1431   14.8750   25.6832 H         1 SUB1        0.068
     70 H72        -7.1640   16.3780   25.5875 H         1 SUB1        0.068
     71 H91       -11.0442   14.4487   32.4059 H         1 SUB1        0.061
     72 H111       -9.4448   17.5930   34.8810 H         1 SUB1        0.061
     73 H121       -8.1864   18.5042   32.9328 H         1 SUB1        0.061
     74 H131       -8.3558   17.3690   30.7204 H         1 SUB1        0.059
     75 H161      -12.4051   13.2608   40.1177 H         1 SUB1        0.053
     76 H171      -12.7682   10.9538   40.9813 H         1 SUB1        0.051
     77 H181      -12.6774    8.9898   39.4783 H         1 SUB1        0.051
     78 H191      -12.2152    9.2540   37.0494 H         1 SUB1        0.051
     79 H221      -11.5885   15.8036   26.9417 H         1 SUB1        0.045
     80 H222      -12.8462   16.8978   27.6108 H         1 SUB1        0.045
     81 H241      -11.7125   13.4525   27.3175 H         1 SUB1        0.056
     82 H251      -12.8649   11.5049   28.3825 H         1 SUB1        0.060
     83 H261      -14.6299   11.8818   30.1134 H         1 SUB1        0.056
     84 H271      -15.2423   14.2116   30.7866 H         1 SUB1        0.060
     85 H281      -14.0905   16.1589   29.7220 H         1 SUB1        0.056
     86 H291       -8.0008   18.0013   28.8529 H         1 SUB1        0.045
     87 H292       -8.0982   19.5892   28.0187 H         1 SUB1        0.045
     88 H311       -6.6646   19.9108   25.8863 H         1 SUB1        0.056
     89 H321       -4.3746   19.5156   24.9553 H         1 SUB1        0.060
     90 H331       -2.9266   17.7492   25.9546 H         1 SUB1        0.056
     91 H341       -3.7290   16.3807   27.8690 H         1 SUB1        0.060
     92 H351       -6.0174   16.7461   28.7961 H         1 SUB1        0.056
     93 H371       -6.9559   16.6318   23.3303 H         1 SUB1        0.061
     94 H391      -10.4692   17.0958   20.8442 H         1 SUB1        0.061
     95 H401      -11.9314   16.5530   22.7957 H         1 SUB1        0.061
     96 H411      -10.8986   16.0926   25.0170 H         1 SUB1        0.059
     97 H441       -5.3671   17.9144   15.6771 H         1 SUB1        0.053
     98 H451       -3.5099   16.7251   14.5113 H         1 SUB1        0.051
     99 H461       -1.9983   15.1876   15.7434 H         1 SUB1        0.051
    100 H471       -2.2882   14.7919   18.1939 H         1 SUB1        0.051
    101 H521      -11.1193   13.6445   34.0130 H         1 SUB1        0.240
    102 H531      -11.8021   14.6697   37.5969 H         1 SUB1        0.230
    103 H551       -6.1616   16.4718   21.7232 H         1 SUB1        0.240
    104 H561       -6.6137   18.1264   18.3352 H         1 SUB1        0.230
    105 H591      -11.8909   19.8412   28.7609 H         1 SUB1        0.210
    106 H601      -11.1590   20.2540   27.0363 H         1 SUB1        0.210
@<TRIPOS>BOND
     1    1   58 2  
     2    1   51 am 
     3    1   50 am 
     4   50    3 1  
     5   50    2 1  
     6    2    8 1  
     7    8   13 ar 
     8    8    9 ar 
     9    9   10 ar 
    10   10   14 1  
    11   10   11 ar 
    12   11   12 ar 
    13   12   13 ar 
    14   14   61 2  
    15   14   52 am 
    16   52   15 am 
    17   15   53 1  
    18   15   54 2  
    19   54   20 1  
    20   20   21 ar 
    21   20   19 ar 
    22   19   18 ar 
    23   18   17 ar 
    24   17   16 ar 
    25   16   21 ar 
    26   21   53 1  
    27    3   22 1  
    28    3    4 1  
    29    4   59 1  
    30    4    5 1  
    31    5   60 1  
    32    5    6 1  
    33    6   51 1  
    34    6   29 1  
    35   29   30 1  
    36   30   35 ar 
    37   30   31 ar 
    38   31   32 ar 
    39   32   33 ar 
    40   33   34 ar 
    41   34   35 ar 
    42   51    7 1  
    43    7   36 1  
    44   36   41 ar 
    45   36   37 ar 
    46   37   38 ar 
    47   38   42 1  
    48   38   39 ar 
    49   39   40 ar 
    50   40   41 ar 
    51   42   55 am 
    52   42   62 2  
    53   55   43 am 
    54   43   56 1  
    55   43   57 2  
    56   57   48 1  
    57   48   49 ar 
    58   48   47 ar 
    59   47   46 ar 
    60   46   45 ar 
    61   45   44 ar 
    62   44   49 ar 
    63   49   56 1  
    64   22   23 1  
    65   23   28 ar 
    66   23   24 ar 
    67   24   25 ar 
    68   25   26 ar 
    69   26   27 ar 
    70   27   28 ar 
    71    2   63 1  
    72    2   64 1  
    73    3   65 1  
    74    4   66 1  
    75    5   67 1  
    76    6   68 1  
    77    7   69 1  
    78    7   70 1  
    79    9   71 1  
    80   11   72 1  
    81   12   73 1  
    82   13   74 1  
    83   16   75 1  
    84   17   76 1  
    85   18   77 1  
    86   19   78 1  
    87   22   79 1  
    88   22   80 1  
    89   24   81 1  
    90   25   82 1  
    91   26   83 1  
    92   27   84 1  
    93   28   85 1  
    94   29   86 1  
    95   29   87 1  
    96   31   88 1  
    97   32   89 1  
    98   33   90 1  
    99   34   91 1  
   100   35   92 1  
   101   37   93 1  
   102   39   94 1  
   103   40   95 1  
   104   41   96 1  
   105   44   97 1  
   106   45   98 1  
   107   46   99 1  
   108   47  100 1  
   109   52  101 1  
   110   53  102 1  
   111   55  103 1  
   112   56  104 1  
   113   59  105 1  
   114   60  106 1  
@<TRIPOS>SUBSTRUCTURE
     1 SUB1        1 GROUP

