### 
### Created by X-TOOL on Sun Jun  3 11:16:46 2007
### 

@<TRIPOS>MOLECULE
2avv_ligand
   92    96     1     0     0
SMALL
GAST_HUCK


@<TRIPOS>ATOM
      1 N1         43.7120   -1.4230   31.4980 N.3       1 SUB1       -0.285
      2 C1         42.3520   -1.4540   30.9100 C.3       1 SUB1        0.034
      3 C2         41.4790   -2.6770   31.0670 C.3       1 SUB1        0.114
      4 C3         40.1260   -2.3580   30.5280 C.2       1 SUB1        0.195
      5 O1         39.9420   -2.1880   29.3280 O.2       1 SUB1       -0.395
      6 N2         39.1570   -2.2680   31.4390 N.am      1 SUB1       -0.280
      7 C4         37.7760   -2.0120   31.1500 C.3       1 SUB1        0.045
      8 C5         37.0010   -1.9000   32.4660 C.3       1 SUB1       -0.040
      9 C6         37.2200   -2.9710   30.3140 C.3       1 SUB1       -0.040
     10 C7         37.6100   -0.7030   30.5250 C.3       1 SUB1       -0.040
     11 N3         42.2790   -3.7570   30.3990 N.3       1 SUB1       -0.278
     12 C8         43.7330   -3.7770   30.7560 C.3       1 SUB1        0.014
     13 C9         44.4420   -2.4460   30.8830 C.3       1 SUB1        0.014
     14 C10        41.7500   -5.1150   30.5270 C.3       1 SUB1        0.028
     15 C11        41.6310   -5.8090   29.1750 C.3       1 SUB1        0.071
     16 O2         41.4230   -7.0990   29.6660 O.3       1 SUB1       -0.390
     17 C12        40.4730   -5.4600   28.2090 C.3       1 SUB1       -0.004
     18 C13        40.5120   -6.0430   26.7850 C.3       1 SUB1        0.061
     19 C14        39.2630   -5.6280   25.9800 C.3       1 SUB1        0.001
     20 C15        39.2850   -6.2760   24.6440 C.ar      1 SUB1       -0.041
     21 C16        39.2760   -7.6640   24.4820 C.ar      1 SUB1       -0.060
     22 C17        39.3360   -8.2140   23.2130 C.ar      1 SUB1       -0.069
     23 C18        39.3930   -7.3520   22.1240 C.ar      1 SUB1       -0.069
     24 C19        39.3970   -5.9670   22.2830 C.ar      1 SUB1       -0.069
     25 C20        39.3420   -5.4240   23.5580 C.ar      1 SUB1       -0.060
     26 C21        41.7430   -5.5970   26.0060 C.2       1 SUB1        0.183
     27 O3         42.0670   -4.3990   25.9790 O.2       1 SUB1       -0.396
     28 N4         42.4210   -6.5740   25.3980 N.am      1 SUB1       -0.271
     29 C22        43.3660   -6.3050   24.3360 C.3       1 SUB1        0.101
     30 C23        43.2430   -7.2870   23.1720 C.3       1 SUB1        0.095
     31 O4         43.2270   -8.6020   23.7050 O.3       1 SUB1       -0.386
     32 C24        44.4930   -6.9930   22.3560 C.3       1 SUB1        0.009
     33 C25        45.6480   -6.8310   23.3350 C.ar      1 SUB1       -0.036
     34 C26        47.0150   -6.9770   23.3500 C.ar      1 SUB1       -0.067
     35 C27        47.6590   -6.7450   24.5630 C.ar      1 SUB1       -0.075
     36 C28        46.9760   -6.3750   25.7240 C.ar      1 SUB1       -0.075
     37 C29        45.6030   -6.1970   25.7540 C.ar      1 SUB1       -0.065
     38 C30        44.8830   -6.4030   24.6200 C.ar      1 SUB1       -0.013
     39 C31        44.3910   -0.1400   31.6170 C.3       1 SUB1        0.039
     40 C32        43.7530    1.0810   32.2830 C.ar      1 SUB1       -0.001
     41 C33        43.2840    1.0650   33.6030 C.ar      1 SUB1        0.014
     42 N5         42.7200    2.1460   34.3060 N.ar      1 SUB1       -0.304
     43 C34        42.6800    3.2960   33.5120 C.ar      1 SUB1        0.004
     44 C35        43.1230    3.3780   32.1890 C.ar      1 SUB1       -0.040
     45 C36        43.6570    2.2530   31.5730 C.ar      1 SUB1       -0.039
     46 H          42.5214   -1.3802   29.8358 H         1 SUB1        0.047
     47 H          41.8122   -0.6682   31.4385 H         1 SUB1        0.047
     48 H          41.2531   -3.0146   32.0785 H         1 SUB1        0.072
     49 H          39.4181   -2.3907   32.4174 H         1 SUB1        0.186
     50 H          35.9689   -1.6196   32.2556 H         1 SUB1        0.025
     51 H          37.0202   -2.8608   32.9804 H         1 SUB1        0.025
     52 H          37.4642   -1.1402   33.0954 H         1 SUB1        0.025
     53 H          37.2404   -3.9406   30.8115 H         1 SUB1        0.025
     54 H          36.1891   -2.6994   30.0867 H         1 SUB1        0.025
     55 H          37.7955   -3.0232   29.3898 H         1 SUB1        0.025
     56 H          36.5495   -0.5119   30.3611 H         1 SUB1        0.025
     57 H          38.0221    0.0654   31.1791 H         1 SUB1        0.025
     58 H          38.1350   -0.6886   29.5699 H         1 SUB1        0.025
     59 H          44.2287   -4.2954   29.9352 H         1 SUB1        0.044
     60 H          43.7851   -4.2318   31.7452 H         1 SUB1        0.044
     61 H          45.3153   -2.6213   31.5113 H         1 SUB1        0.044
     62 H          44.6481   -2.1090   29.8671 H         1 SUB1        0.044
     63 H          40.7552   -5.0539   30.9683 H         1 SUB1        0.045
     64 H          42.4357   -5.6916   31.1478 H         1 SUB1        0.045
     65 H          42.4792   -5.5569   28.5385 H         1 SUB1        0.061
     66 H          41.3206   -7.7075   28.9306 H         1 SUB1        0.210
     67 H          40.5239   -4.3791   28.0783 H         1 SUB1        0.032
     68 H          39.5790   -5.8823   28.6679 H         1 SUB1        0.032
     69 H          40.5430   -7.1255   26.9092 H         1 SUB1        0.056
     70 H          39.2593   -4.5452   25.8546 H         1 SUB1        0.045
     71 H          38.3681   -5.9419   26.5173 H         1 SUB1        0.045
     72 H          39.2217   -8.3140   25.3553 H         1 SUB1        0.056
     73 H          39.3385   -9.2948   23.0715 H         1 SUB1        0.060
     74 H          39.4357   -7.7703   21.1184 H         1 SUB1        0.056
     75 H          39.4431   -5.3150   21.4107 H         1 SUB1        0.060
     76 H          39.3437   -4.3434   23.7008 H         1 SUB1        0.056
     77 H          42.2679   -7.5389   25.6912 H         1 SUB1        0.188
     78 H          43.0789   -5.2692   24.1551 H         1 SUB1        0.073
     79 H          42.3427   -7.1953   22.5645 H         1 SUB1        0.066
     80 H          43.1501   -9.2358   22.9880 H         1 SUB1        0.210
     81 H          44.3605   -6.0850   21.7678 H         1 SUB1        0.044
     82 H          44.6943   -7.8064   21.6588 H         1 SUB1        0.044
     83 H          47.5686   -7.2609   22.4550 H         1 SUB1        0.054
     84 H          48.7423   -6.8569   24.6083 H         1 SUB1        0.054
     85 H          47.5451   -6.2206   26.6407 H         1 SUB1        0.054
     86 H          45.1059   -5.8953   26.6759 H         1 SUB1        0.054
     87 H          44.5091    0.1757   30.5804 H         1 SUB1        0.060
     88 H          45.2355   -0.3653   32.2682 H         1 SUB1        0.060
     89 H          43.3640    0.1198   34.1399 H         1 SUB1        0.076
     90 H          42.2706    4.2011   33.9607 H         1 SUB1        0.077
     91 H          43.0500    4.3190   31.6437 H         1 SUB1        0.069
     92 H          43.9959    2.2998   30.5381 H         1 SUB1        0.068
@<TRIPOS>BOND
     1    1    2 1  
     2    1   13 1  
     3    1   39 1  
     4    2    3 1  
     5    3    4 1  
     6    3   11 1  
     7    4    5 2  
     8    4    6 am 
     9    6    7 1  
    10    7    8 1  
    11    7    9 1  
    12    7   10 1  
    13   11   12 1  
    14   11   14 1  
    15   12   13 1  
    16   14   15 1  
    17   15   16 1  
    18   15   17 1  
    19   17   18 1  
    20   18   19 1  
    21   18   26 1  
    22   19   20 1  
    23   20   21 ar 
    24   20   25 ar 
    25   21   22 ar 
    26   22   23 ar 
    27   23   24 ar 
    28   24   25 ar 
    29   26   27 2  
    30   26   28 am 
    31   28   29 1  
    32   29   30 1  
    33   29   38 1  
    34   30   31 1  
    35   30   32 1  
    36   32   33 1  
    37   33   34 ar 
    38   33   38 ar 
    39   34   35 ar 
    40   35   36 ar 
    41   36   37 ar 
    42   37   38 ar 
    43   39   40 1  
    44   40   41 ar 
    45   40   45 ar 
    46   41   42 ar 
    47   42   43 ar 
    48   43   44 ar 
    49   44   45 ar 
    50    2   46 1  
    51    2   47 1  
    52    3   48 1  
    53    6   49 1  
    54    8   50 1  
    55    8   51 1  
    56    8   52 1  
    57    9   53 1  
    58    9   54 1  
    59    9   55 1  
    60   10   56 1  
    61   10   57 1  
    62   10   58 1  
    63   12   59 1  
    64   12   60 1  
    65   13   61 1  
    66   13   62 1  
    67   14   63 1  
    68   14   64 1  
    69   15   65 1  
    70   16   66 1  
    71   17   67 1  
    72   17   68 1  
    73   18   69 1  
    74   19   70 1  
    75   19   71 1  
    76   21   72 1  
    77   22   73 1  
    78   23   74 1  
    79   24   75 1  
    80   25   76 1  
    81   28   77 1  
    82   29   78 1  
    83   30   79 1  
    84   31   80 1  
    85   32   81 1  
    86   32   82 1  
    87   34   83 1  
    88   35   84 1  
    89   36   85 1  
    90   37   86 1  
    91   39   87 1  
    92   39   88 1  
    93   41   89 1  
    94   43   90 1  
    95   44   91 1  
    96   45   92 1  
@<TRIPOS>SUBSTRUCTURE
     1 SUB1        1 GROUP

