2avv_ligand
  -I-interpret- 

 92 96  0  0  0  0  0  0  0  0999 V2000
   43.7120   -1.4230   31.4980 N   0  0  0  0  0
   42.3520   -1.4540   30.9100 C   0  0  0  0  0
   41.4790   -2.6770   31.0670 C   0  0  0  0  0
   40.1260   -2.3580   30.5280 C   0  0  0  0  0
   39.9420   -2.1880   29.3280 O   0  0  0  0  0
   39.1570   -2.2680   31.4390 N   0  0  0  0  0
   37.7760   -2.0120   31.1500 C   0  0  0  0  0
   37.0010   -1.9000   32.4660 C   0  0  0  0  0
   37.2200   -2.9710   30.3140 C   0  0  0  0  0
   37.6100   -0.7030   30.5250 C   0  0  0  0  0
   42.2790   -3.7570   30.3990 N   0  0  0  0  0
   43.7330   -3.7770   30.7560 C   0  0  0  0  0
   44.4420   -2.4460   30.8830 C   0  0  0  0  0
   41.7500   -5.1150   30.5270 C   0  0  0  0  0
   41.6310   -5.8090   29.1750 C   0  0  0  0  0
   41.4230   -7.0990   29.6660 O   0  0  0  0  0
   40.4730   -5.4600   28.2090 C   0  0  0  0  0
   40.5120   -6.0430   26.7850 C   0  0  0  0  0
   39.2630   -5.6280   25.9800 C   0  0  0  0  0
   39.2850   -6.2760   24.6440 C   0  0  0  0  0
   39.2760   -7.6640   24.4820 C   0  0  0  0  0
   39.3360   -8.2140   23.2130 C   0  0  0  0  0
   39.3930   -7.3520   22.1240 C   0  0  0  0  0
   39.3970   -5.9670   22.2830 C   0  0  0  0  0
   39.3420   -5.4240   23.5580 C   0  0  0  0  0
   41.7430   -5.5970   26.0060 C   0  0  0  0  0
   42.0670   -4.3990   25.9790 O   0  0  0  0  0
   42.4210   -6.5740   25.3980 N   0  0  0  0  0
   43.3660   -6.3050   24.3360 C   0  0  0  0  0
   43.2430   -7.2870   23.1720 C   0  0  0  0  0
   43.2270   -8.6020   23.7050 O   0  0  0  0  0
   44.4930   -6.9930   22.3560 C   0  0  0  0  0
   45.6480   -6.8310   23.3350 C   0  0  0  0  0
   47.0150   -6.9770   23.3500 C   0  0  0  0  0
   47.6590   -6.7450   24.5630 C   0  0  0  0  0
   46.9760   -6.3750   25.7240 C   0  0  0  0  0
   45.6030   -6.1970   25.7540 C   0  0  0  0  0
   44.8830   -6.4030   24.6200 C   0  0  0  0  0
   44.3910   -0.1400   31.6170 C   0  0  0  0  0
   43.7530    1.0810   32.2830 C   0  0  0  0  0
   43.2840    1.0650   33.6030 C   0  0  0  0  0
   42.7200    2.1460   34.3060 N   0  0  0  0  0
   42.6800    3.2960   33.5120 C   0  0  0  0  0
   43.1230    3.3780   32.1890 C   0  0  0  0  0
   43.6570    2.2530   31.5730 C   0  0  0  0  0
   42.5214   -1.3802   29.8358 H   0  0  0  0  0
   41.8122   -0.6682   31.4385 H   0  0  0  0  0
   41.2531   -3.0146   32.0785 H   0  0  0  0  0
   39.4181   -2.3907   32.4174 H   0  0  0  0  0
   35.9689   -1.6196   32.2556 H   0  0  0  0  0
   37.0202   -2.8608   32.9804 H   0  0  0  0  0
   37.4642   -1.1402   33.0954 H   0  0  0  0  0
   37.2404   -3.9406   30.8115 H   0  0  0  0  0
   36.1891   -2.6994   30.0867 H   0  0  0  0  0
   37.7955   -3.0232   29.3898 H   0  0  0  0  0
   36.5495   -0.5119   30.3611 H   0  0  0  0  0
   38.0221    0.0654   31.1791 H   0  0  0  0  0
   38.1350   -0.6886   29.5699 H   0  0  0  0  0
   44.2287   -4.2954   29.9352 H   0  0  0  0  0
   43.7851   -4.2318   31.7452 H   0  0  0  0  0
   45.3153   -2.6213   31.5113 H   0  0  0  0  0
   44.6481   -2.1090   29.8671 H   0  0  0  0  0
   40.7552   -5.0539   30.9683 H   0  0  0  0  0
   42.4357   -5.6916   31.1478 H   0  0  0  0  0
   42.4792   -5.5569   28.5385 H   0  0  0  0  0
   41.3206   -7.7075   28.9306 H   0  0  0  0  0
   40.5239   -4.3791   28.0783 H   0  0  0  0  0
   39.5790   -5.8823   28.6679 H   0  0  0  0  0
   40.5430   -7.1255   26.9092 H   0  0  0  0  0
   39.2593   -4.5452   25.8546 H   0  0  0  0  0
   38.3681   -5.9419   26.5173 H   0  0  0  0  0
   39.2217   -8.3140   25.3553 H   0  0  0  0  0
   39.3385   -9.2948   23.0715 H   0  0  0  0  0
   39.4357   -7.7703   21.1184 H   0  0  0  0  0
   39.4431   -5.3150   21.4107 H   0  0  0  0  0
   39.3437   -4.3434   23.7008 H   0  0  0  0  0
   42.2679   -7.5389   25.6912 H   0  0  0  0  0
   43.0789   -5.2692   24.1551 H   0  0  0  0  0
   42.3427   -7.1953   22.5645 H   0  0  0  0  0
   43.1501   -9.2358   22.9880 H   0  0  0  0  0
   44.3605   -6.0850   21.7678 H   0  0  0  0  0
   44.6943   -7.8064   21.6588 H   0  0  0  0  0
   47.5686   -7.2609   22.4550 H   0  0  0  0  0
   48.7423   -6.8569   24.6083 H   0  0  0  0  0
   47.5451   -6.2206   26.6407 H   0  0  0  0  0
   45.1059   -5.8953   26.6759 H   0  0  0  0  0
   44.5091    0.1757   30.5804 H   0  0  0  0  0
   45.2355   -0.3653   32.2682 H   0  0  0  0  0
   43.3640    0.1198   34.1399 H   0  0  0  0  0
   42.2706    4.2011   33.9607 H   0  0  0  0  0
   43.0500    4.3190   31.6437 H   0  0  0  0  0
   43.9959    2.2998   30.5381 H   0  0  0  0  0
  1  2  1  0  0  0
  1 13  1  0  0  0
  1 39  1  0  0  0
  2  3  1  0  0  0
  3  4  1  0  0  0
  3 11  1  0  0  0
  4  5  2  0  0  0
  4  6  1  0  0  0
  6  7  1  0  0  0
  7  8  1  0  0  0
  7  9  1  0  0  0
  7 10  1  0  0  0
 11 12  1  0  0  0
 11 14  1  0  0  0
 12 13  1  0  0  0
 14 15  1  0  0  0
 15 16  1  0  0  0
 15 17  1  0  0  0
 17 18  1  0  0  0
 18 19  1  0  0  0
 18 26  1  0  0  0
 19 20  1  0  0  0
 20 21  4  0  0  0
 20 25  4  0  0  0
 21 22  4  0  0  0
 22 23  4  0  0  0
 23 24  4  0  0  0
 24 25  4  0  0  0
 26 27  2  0  0  0
 26 28  1  0  0  0
 28 29  1  0  0  0
 29 30  1  0  0  0
 29 38  1  0  0  0
 30 31  1  0  0  0
 30 32  1  0  0  0
 32 33  1  0  0  0
 33 34  4  0  0  0
 33 38  4  0  0  0
 34 35  4  0  0  0
 35 36  4  0  0  0
 36 37  4  0  0  0
 37 38  4  0  0  0
 39 40  1  0  0  0
 40 41  4  0  0  0
 40 45  4  0  0  0
 41 42  4  0  0  0
 42 43  4  0  0  0
 43 44  4  0  0  0
 44 45  4  0  0  0
  2 46  1  0  0  0
  2 47  1  0  0  0
  3 48  1  0  0  0
  6 49  1  0  0  0
  8 50  1  0  0  0
  8 51  1  0  0  0
  8 52  1  0  0  0
  9 53  1  0  0  0
  9 54  1  0  0  0
  9 55  1  0  0  0
 10 56  1  0  0  0
 10 57  1  0  0  0
 10 58  1  0  0  0
 12 59  1  0  0  0
 12 60  1  0  0  0
 13 61  1  0  0  0
 13 62  1  0  0  0
 14 63  1  0  0  0
 14 64  1  0  0  0
 15 65  1  0  0  0
 16 66  1  0  0  0
 17 67  1  0  0  0
 17 68  1  0  0  0
 18 69  1  0  0  0
 19 70  1  0  0  0
 19 71  1  0  0  0
 21 72  1  0  0  0
 22 73  1  0  0  0
 23 74  1  0  0  0
 24 75  1  0  0  0
 25 76  1  0  0  0
 28 77  1  0  0  0
 29 78  1  0  0  0
 30 79  1  0  0  0
 31 80  1  0  0  0
 32 81  1  0  0  0
 32 82  1  0  0  0
 34 83  1  0  0  0
 35 84  1  0  0  0
 36 85  1  0  0  0
 37 86  1  0  0  0
 39 87  1  0  0  0
 39 88  1  0  0  0
 41 89  1  0  0  0
 43 90  1  0  0  0
 44 91  1  0  0  0
 45 92  1  0  0  0
M  END
$$$$
