### 
### Created by X-TOOL on Mon Oct 24 23:10:26 2005
### 

@<TRIPOS>MOLECULE
1oyq_ligand
   71    75     1     0     0
SMALL
GAST_HUCK


@<TRIPOS>ATOM
      1 N1         -5.0190   10.1310   19.8050 N.pl3     1 SUB1       -0.201
      2 N2         -3.1090   10.8320   19.0180 N.pl3     1 SUB1       -0.201
      3 C1         -3.7590    9.8110   19.5430 C.cat     1 SUB1        0.309
      4 C2         -3.1990    8.5470   19.7670 C.ar      1 SUB1        0.173
      5 C3         -3.9600    7.4910   20.3590 C.ar      1 SUB1       -0.019
      6 C4         -3.4050    6.2260   20.5810 C.ar      1 SUB1       -0.043
      7 C5         -2.0670    5.9600   20.2190 C.ar      1 SUB1        0.029
      8 C6         -1.2860    6.9720   19.6350 C.ar      1 SUB1       -0.043
      9 C7         -1.8370    8.2440   19.4110 C.ar      1 SUB1       -0.019
     10 N          -1.4620    4.6710   20.4280 N.3       1 SUB1       -0.246
     11 C          -1.9140    3.5810   21.3250 C.3       1 SUB1        0.098
     12 N3         -3.3210    4.2790   23.2760 N.2       1 SUB1       -0.307
     13 C8         -2.0490    3.9470   22.8090 C.2       1 SUB1        0.148
     14 N9         -0.9360    3.9540   23.6790 N.pl3     1 SUB1       -0.222
     15 C3A        -1.6050    4.3430   24.8400 C.ar      1 SUB1        0.103
     16 C7A        -3.0180    4.5350   24.5940 C.ar      1 SUB1        0.045
     17 C10        -1.0780    4.5600   26.1550 C.ar      1 SUB1       -0.023
     18 C11        -1.9480    4.9610   27.1810 C.ar      1 SUB1       -0.069
     19 C12        -3.3470    5.1540   26.9540 C.ar      1 SUB1       -0.094
     20 C13        -3.8870    4.9410   25.6560 C.ar      1 SUB1       -0.053
     21 C14         0.5100    3.6470   23.4490 C.3       1 SUB1        0.050
     22 C9         -5.7810    5.6030   28.0770 C.3       1 SUB1       -0.104
     23 C15        -5.0300    6.9050   27.7080 C.3       1 SUB1       -0.104
     24 C16        -4.2700    5.6670   28.1120 C.3       1 SUB1       -0.034
     25 C17        -3.6240    5.2410   29.4620 C.2       1 SUB1        0.074
     26 N4         -3.7730    4.0090   29.8970 N.2       1 SUB1       -0.058
     27 N5         -2.8060    6.2900   31.6930 N.ar      1 SUB1       -0.294
     28 C18        -2.7890    6.2830   30.2730 C.ar      1 SUB1        0.057
     29 C19        -2.0000    7.2410   29.5940 C.ar      1 SUB1       -0.028
     30 C20        -1.2420    8.1850   30.3270 C.ar      1 SUB1       -0.043
     31 C21        -1.2610    8.1900   31.7450 C.ar      1 SUB1       -0.036
     32 C22        -2.0430    7.2420   32.4320 C.ar      1 SUB1        0.008
     33 OH         -4.5710    3.0370   29.1000 O.3       1 SUB1       -0.145
     34 C23        -4.6000    1.7620   29.7460 C.3       1 SUB1        0.220
     35 C24        -5.3700    0.7670   28.8600 C.2       1 SUB1        0.273
     36 O2         -6.0520   -0.1190   29.3960 O.2       1 SUB1       -0.367
     37 O3         -5.2870    0.8810   27.4870 O.3       1 SUB1       -0.275
     38 C25        -6.2810    0.2790   25.3430 C.3       1 SUB1       -0.037
     39 C26        -6.0670   -0.1290   26.8150 C.3       1 SUB1        0.074
     40 H11        -5.3590   11.0841   19.6127 H         1 SUB1        0.192
     41 H12        -5.6577    9.4265   20.2008 H         1 SUB1        0.192
     42 H21        -2.1164   10.7335   18.7611 H         1 SUB1        0.192
     43 H22        -3.5941   11.7276   18.8650 H         1 SUB1        0.192
     44 H51        -4.9901    7.6747   20.6422 H         1 SUB1        0.063
     45 H61        -4.0061    5.4457   21.0336 H         1 SUB1        0.052
     46 H81        -0.2577    6.7705   19.3573 H         1 SUB1        0.052
     47 H91        -1.2232    9.0153   18.9599 H         1 SUB1        0.063
     48 H101       -1.4365    4.2119   19.4508 H         1 SUB1        0.159
     49 H111       -2.9021    3.2406   20.9818 H         1 SUB1        0.075
     50 H112       -1.1889    2.7567   21.2570 H         1 SUB1        0.075
     51 H171       -0.0222    4.4165   26.3545 H         1 SUB1        0.060
     52 H181       -1.5480    5.1293   28.1743 H         1 SUB1        0.066
     53 H201       -4.9457    5.0846   25.4729 H         1 SUB1        0.073
     54 H211        0.6547    3.3744   22.3932 H         1 SUB1        0.057
     55 H212        1.1223    4.5317   23.6776 H         1 SUB1        0.057
     56 H213        0.8196    2.8028   24.0825 H         1 SUB1        0.057
     57 H221       -6.3449    5.5360   29.0190 H         1 SUB1        0.008
     58 H222       -6.2828    5.0121   27.2967 H         1 SUB1        0.008
     59 H231       -4.9954    7.2471   26.6632 H         1 SUB1        0.008
     60 H232       -5.0575    7.7711   28.3855 H         1 SUB1        0.008
     61 H291       -1.9760    7.2520   28.5103 H         1 SUB1        0.071
     62 H301       -0.6390    8.9138   29.7976 H         1 SUB1        0.073
     63 H311       -0.6775    8.9186   32.2961 H         1 SUB1        0.070
     64 H321       -2.0651    7.2356   33.5158 H         1 SUB1        0.082
     65 H341       -3.5744    1.3921   29.8915 H         1 SUB1        0.097
     66 H342       -5.1099    1.8453   30.7171 H         1 SUB1        0.097
     67 H381       -6.8763   -0.4968   24.8393 H         1 SUB1        0.025
     68 H382       -6.8231    1.2348   25.2937 H         1 SUB1        0.025
     69 H383       -5.3100    0.3718   24.8345 H         1 SUB1        0.025
     70 H391       -5.5348   -1.0912   26.8436 H         1 SUB1        0.061
     71 H392       -7.0479   -0.2282   27.3028 H         1 SUB1        0.061
@<TRIPOS>BOND
     1    3    1 1  
     2    4    3 1  
     3    5    4 ar 
     4    9    4 ar 
     5    6    5 ar 
     6    7    6 ar 
     7    7    8 ar 
     8   10    7 1  
     9    8    9 ar 
    10   11   10 1  
    11   13   11 1  
    12   14   13 1  
    13   15   14 1  
    14   14   21 1  
    15   16   15 ar 
    16   17   15 ar 
    17   20   16 ar 
    18   18   17 ar 
    19   19   18 ar 
    20   19   20 ar 
    21   24   19 1  
    22   22   23 1  
    23   24   22 1  
    24   23   24 1  
    25   24   25 1  
    26   25   26 2  
    27   25   28 1  
    28   26   33 1  
    29   28   29 ar 
    30   29   30 ar 
    31   30   31 ar 
    32   31   32 ar 
    33   33   34 1  
    34   34   35 1  
    35   35   36 2  
    36   35   37 1  
    37   37   39 1  
    38   39   38 1  
    39   32   27 ar 
    40   28   27 ar 
    41   16   12 1  
    42   13   12 2  
    43    3    2 1  
    44    1   40 1  
    45    1   41 1  
    46    2   42 1  
    47    2   43 1  
    48    5   44 1  
    49    6   45 1  
    50    8   46 1  
    51    9   47 1  
    52   10   48 1  
    53   11   49 1  
    54   11   50 1  
    55   17   51 1  
    56   18   52 1  
    57   20   53 1  
    58   21   54 1  
    59   21   55 1  
    60   21   56 1  
    61   22   57 1  
    62   22   58 1  
    63   23   59 1  
    64   23   60 1  
    65   29   61 1  
    66   30   62 1  
    67   31   63 1  
    68   32   64 1  
    69   34   65 1  
    70   34   66 1  
    71   38   67 1  
    72   38   68 1  
    73   38   69 1  
    74   39   70 1  
    75   39   71 1  
@<TRIPOS>SUBSTRUCTURE
     1 SUB1        1 GROUP

