1oyq_ligand
  -I-interpret- 

 71 75  0  0  0  0  0  0  0  0999 V2000
   -5.0190   10.1310   19.8050 N   0  0  0  0  0
   -3.1090   10.8320   19.0180 N   0  0  0  0  0
   -3.7590    9.8110   19.5430 C   0  3  0  0  0
   -3.1990    8.5470   19.7670 C   0  0  0  0  0
   -3.9600    7.4910   20.3590 C   0  0  0  0  0
   -3.4050    6.2260   20.5810 C   0  0  0  0  0
   -2.0670    5.9600   20.2190 C   0  0  0  0  0
   -1.2860    6.9720   19.6350 C   0  0  0  0  0
   -1.8370    8.2440   19.4110 C   0  0  0  0  0
   -1.4620    4.6710   20.4280 N   0  0  0  0  0
   -1.9140    3.5810   21.3250 C   0  0  0  0  0
   -3.3210    4.2790   23.2760 N   0  0  0  0  0
   -2.0490    3.9470   22.8090 C   0  0  0  0  0
   -0.9360    3.9540   23.6790 N   0  0  0  0  0
   -1.6050    4.3430   24.8400 C   0  0  0  0  0
   -3.0180    4.5350   24.5940 C   0  0  0  0  0
   -1.0780    4.5600   26.1550 C   0  0  0  0  0
   -1.9480    4.9610   27.1810 C   0  0  0  0  0
   -3.3470    5.1540   26.9540 C   0  0  0  0  0
   -3.8870    4.9410   25.6560 C   0  0  0  0  0
    0.5100    3.6470   23.4490 C   0  0  0  0  0
   -5.7810    5.6030   28.0770 C   0  0  0  0  0
   -5.0300    6.9050   27.7080 C   0  0  0  0  0
   -4.2700    5.6670   28.1120 C   0  0  0  0  0
   -3.6240    5.2410   29.4620 C   0  0  0  0  0
   -3.7730    4.0090   29.8970 N   0  0  0  0  0
   -2.8060    6.2900   31.6930 N   0  0  0  0  0
   -2.7890    6.2830   30.2730 C   0  0  0  0  0
   -2.0000    7.2410   29.5940 C   0  0  0  0  0
   -1.2420    8.1850   30.3270 C   0  0  0  0  0
   -1.2610    8.1900   31.7450 C   0  0  0  0  0
   -2.0430    7.2420   32.4320 C   0  0  0  0  0
   -4.5710    3.0370   29.1000 O   0  0  0  0  0
   -4.6000    1.7620   29.7460 C   0  0  0  0  0
   -5.3700    0.7670   28.8600 C   0  0  0  0  0
   -6.0520   -0.1190   29.3960 O   0  0  0  0  0
   -5.2870    0.8810   27.4870 O   0  0  0  0  0
   -6.2810    0.2790   25.3430 C   0  0  0  0  0
   -6.0670   -0.1290   26.8150 C   0  0  0  0  0
   -5.3590   11.0841   19.6127 H   0  0  0  0  0
   -5.6577    9.4265   20.2008 H   0  0  0  0  0
   -2.1164   10.7335   18.7611 H   0  0  0  0  0
   -3.5941   11.7276   18.8650 H   0  0  0  0  0
   -4.9901    7.6747   20.6422 H   0  0  0  0  0
   -4.0061    5.4457   21.0336 H   0  0  0  0  0
   -0.2577    6.7705   19.3573 H   0  0  0  0  0
   -1.2232    9.0153   18.9599 H   0  0  0  0  0
   -1.4365    4.2119   19.4508 H   0  0  0  0  0
   -2.9021    3.2406   20.9818 H   0  0  0  0  0
   -1.1889    2.7567   21.2570 H   0  0  0  0  0
   -0.0222    4.4165   26.3545 H   0  0  0  0  0
   -1.5480    5.1293   28.1743 H   0  0  0  0  0
   -4.9457    5.0846   25.4729 H   0  0  0  0  0
    0.6547    3.3744   22.3932 H   0  0  0  0  0
    1.1223    4.5317   23.6776 H   0  0  0  0  0
    0.8196    2.8028   24.0825 H   0  0  0  0  0
   -6.3449    5.5360   29.0190 H   0  0  0  0  0
   -6.2828    5.0121   27.2967 H   0  0  0  0  0
   -4.9954    7.2471   26.6632 H   0  0  0  0  0
   -5.0575    7.7711   28.3855 H   0  0  0  0  0
   -1.9760    7.2520   28.5103 H   0  0  0  0  0
   -0.6390    8.9138   29.7976 H   0  0  0  0  0
   -0.6775    8.9186   32.2961 H   0  0  0  0  0
   -2.0651    7.2356   33.5158 H   0  0  0  0  0
   -3.5744    1.3921   29.8915 H   0  0  0  0  0
   -5.1099    1.8453   30.7171 H   0  0  0  0  0
   -6.8763   -0.4968   24.8393 H   0  0  0  0  0
   -6.8231    1.2348   25.2937 H   0  0  0  0  0
   -5.3100    0.3718   24.8345 H   0  0  0  0  0
   -5.5348   -1.0912   26.8436 H   0  0  0  0  0
   -7.0479   -0.2282   27.3028 H   0  0  0  0  0
  3  1  1  0  0  0
  4  3  1  0  0  0
  5  4  4  0  0  0
  9  4  4  0  0  0
  6  5  4  0  0  0
  7  6  4  0  0  0
  7  8  4  0  0  0
 10  7  1  0  0  0
  8  9  4  0  0  0
 11 10  1  0  0  0
 13 11  1  0  0  0
 14 13  1  0  0  0
 15 14  1  0  0  0
 14 21  1  0  0  0
 16 15  4  0  0  0
 17 15  4  0  0  0
 20 16  4  0  0  0
 18 17  4  0  0  0
 19 18  4  0  0  0
 19 20  4  0  0  0
 24 19  1  0  0  0
 22 23  1  0  0  0
 24 22  1  0  0  0
 23 24  1  0  0  0
 24 25  1  0  0  0
 25 26  2  0  0  0
 25 28  1  0  0  0
 26 33  1  0  0  0
 28 29  4  0  0  0
 29 30  4  0  0  0
 30 31  4  0  0  0
 31 32  4  0  0  0
 33 34  1  0  0  0
 34 35  1  0  0  0
 35 36  2  0  0  0
 35 37  1  0  0  0
 37 39  1  0  0  0
 39 38  1  0  0  0
 32 27  4  0  0  0
 28 27  4  0  0  0
 16 12  1  0  0  0
 13 12  2  0  0  0
  3  2  1  0  0  0
  1 40  1  0  0  0
  1 41  1  0  0  0
  2 42  1  0  0  0
  2 43  1  0  0  0
  5 44  1  0  0  0
  6 45  1  0  0  0
  8 46  1  0  0  0
  9 47  1  0  0  0
 10 48  1  0  0  0
 11 49  1  0  0  0
 11 50  1  0  0  0
 17 51  1  0  0  0
 18 52  1  0  0  0
 20 53  1  0  0  0
 21 54  1  0  0  0
 21 55  1  0  0  0
 21 56  1  0  0  0
 22 57  1  0  0  0
 22 58  1  0  0  0
 23 59  1  0  0  0
 23 60  1  0  0  0
 29 61  1  0  0  0
 30 62  1  0  0  0
 31 63  1  0  0  0
 32 64  1  0  0  0
 34 65  1  0  0  0
 34 66  1  0  0  0
 38 67  1  0  0  0
 38 68  1  0  0  0
 38 69  1  0  0  0
 39 70  1  0  0  0
 39 71  1  0  0  0
M  END
$$$$
