2j7h_ligand
  -I-interpret- 

 24 24  0  0  0  0  0  0  0  0999 V2000
   -1.6300   10.6580    6.7330 O   0  0  0  0  0
   -1.1360   10.6320    8.0810 C   0  0  0  0  0
   -0.3170   11.9080    8.4230 C   0  0  0  0  0
    0.8150   12.0560    7.5660 O   0  0  0  0  0
    0.1820   11.9810    9.8740 C   0  0  0  0  0
   -0.8370   11.4630   10.8000 N   0  3  0  0  0
   -2.3020   10.5360    9.0620 C   0  0  0  0  0
   -3.2410    9.3710    8.7770 C   0  0  0  0  0
   -2.5130    8.1500    8.9590 O   0  0  0  0  0
   -1.6760   10.4190   10.3790 N   0  3  0  0  0
   -2.1287    9.8560    6.5606 H   0  0  0  0  0
   -0.4850    9.7620    8.1665 H   0  0  0  0  0
   -1.0313   12.7176    8.2729 H   0  0  0  0  0
    1.2949   12.8520    7.8062 H   0  0  0  0  0
    0.3892   13.0216   10.1238 H   0  0  0  0  0
    1.0839   11.3760    9.9677 H   0  0  0  0  0
   -1.4632   12.2506   10.9672 H   0  0  0  0  0
   -0.3078   11.0747   11.5808 H   0  0  0  0  0
   -2.9461   11.4117    8.9829 H   0  0  0  0  0
   -3.6150    9.4341    7.7551 H   0  0  0  0  0
   -4.0927    9.4029    9.4565 H   0  0  0  0  0
   -3.0916    7.4045    8.7829 H   0  0  0  0  0
   -2.4471   10.4034   11.0465 H   0  0  0  0  0
   -1.0780    9.5945   10.3239 H   0  0  0  0  0
  1  2  1  0  0  0
  2  3  1  0  0  0
  2  7  1  0  0  0
  3  4  1  0  0  0
  3  5  1  0  0  0
  5  6  1  0  0  0
  6 10  1  0  0  0
  7  8  1  0  0  0
  7 10  1  0  0  0
  8  9  1  0  0  0
  1 11  1  0  0  0
  2 12  1  0  0  0
  3 13  1  0  0  0
  4 14  1  0  0  0
  5 15  1  0  0  0
  5 16  1  0  0  0
  6 17  1  0  0  0
  6 18  1  0  0  0
  7 19  1  0  0  0
  8 20  1  0  0  0
  8 21  1  0  0  0
  9 22  1  0  0  0
 10 23  1  0  0  0
 10 24  1  0  0  0
M  END
$$$$
