### 
### Created by X-TOOL on Sun Jun  3 11:32:15 2007
### 

@<TRIPOS>MOLECULE
2j7h_ligand
   24    24     1     0     0
SMALL
GAST_HUCK


@<TRIPOS>ATOM
      1 O4         -1.6300   10.6580    6.7330 O.3       1 SUB1       -0.383
      2 C4         -1.1360   10.6320    8.0810 C.3       1 SUB1        0.132
      3 C3         -0.3170   11.9080    8.4230 C.3       1 SUB1        0.127
      4 O3          0.8150   12.0560    7.5660 O.3       1 SUB1       -0.384
      5 C2          0.1820   11.9810    9.8740 C.3       1 SUB1        0.022
      6 N          -0.8370   11.4630   10.8000 N.4       1 SUB1        0.322
      7 C5         -2.3020   10.5360    9.0620 C.3       1 SUB1        0.056
      8 C6         -3.2410    9.3710    8.7770 C.3       1 SUB1        0.091
      9 O6         -2.5130    8.1500    8.9590 O.3       1 SUB1       -0.389
     10 N2         -1.6760   10.4190   10.3790 N.4       1 SUB1        0.325
     11 H          -2.1287    9.8560    6.5606 H         1 SUB1        0.210
     12 H          -0.4850    9.7620    8.1665 H         1 SUB1        0.068
     13 H          -1.0313   12.7176    8.2729 H         1 SUB1        0.068
     14 H           1.2949   12.8520    7.8062 H         1 SUB1        0.210
     15 H           0.3892   13.0216   10.1238 H         1 SUB1        0.086
     16 H           1.0839   11.3760    9.9677 H         1 SUB1        0.086
     17 H          -1.4632   12.2506   10.9672 H         1 SUB1        0.233
     18 H          -0.3078   11.0747   11.5808 H         1 SUB1        0.233
     19 H          -2.9461   11.4117    8.9829 H         1 SUB1        0.091
     20 H          -3.6150    9.4341    7.7551 H         1 SUB1        0.062
     21 H          -4.0927    9.4029    9.4565 H         1 SUB1        0.062
     22 H          -3.0916    7.4045    8.7829 H         1 SUB1        0.210
     23 H          -2.4471   10.4034   11.0465 H         1 SUB1        0.233
     24 H          -1.0780    9.5945   10.3239 H         1 SUB1        0.233
@<TRIPOS>BOND
     1    1    2 1  
     2    2    3 1  
     3    2    7 1  
     4    3    4 1  
     5    3    5 1  
     6    5    6 1  
     7    6   10 1  
     8    7    8 1  
     9    7   10 1  
    10    8    9 1  
    11    1   11 1  
    12    2   12 1  
    13    3   13 1  
    14    4   14 1  
    15    5   15 1  
    16    5   16 1  
    17    6   17 1  
    18    6   18 1  
    19    7   19 1  
    20    8   20 1  
    21    8   21 1  
    22    9   22 1  
    23   10   23 1  
    24   10   24 1  
@<TRIPOS>SUBSTRUCTURE
     1 SUB1        1 GROUP

