### 
### Created by X-TOOL on Mon Oct 24 23:58:41 2005
### 

@<TRIPOS>MOLECULE
1g30_ligand
   71    75     1     0     0
SMALL
GAST_HUCK


@<TRIPOS>ATOM
      1 N1         10.2730  -12.6880   23.9230 N.pl3     1 SUB1       -0.201
      2 N2         10.8730  -10.6680   24.4990 N.pl3     1 SUB1       -0.201
      3 C1         11.0970  -11.6780   23.6710 C.cat     1 SUB1        0.309
      4 C2         12.0790  -11.6850   22.6660 C.ar      1 SUB1        0.173
      5 C3         12.0990  -12.6910   21.6450 C.ar      1 SUB1       -0.019
      6 C4         13.0860  -12.7030   20.6420 C.ar      1 SUB1       -0.043
      7 C5         14.0860  -11.7100   20.6240 C.ar      1 SUB1        0.029
      8 C6         14.0990  -10.7020   21.6110 C.ar      1 SUB1       -0.043
      9 C7         13.1130  -10.6920   22.6100 C.ar      1 SUB1       -0.019
     10 N          15.1220  -11.6910   19.6280 N.3       1 SUB1       -0.246
     11 C          16.5750  -11.4160   19.8050 C.3       1 SUB1        0.098
     12 N3         16.7180  -13.2600   21.5130 N.2       1 SUB1       -0.307
     13 C8         17.4080  -12.3860   20.6790 C.2       1 SUB1        0.148
     14 N9         18.8210  -12.4030   20.6440 N.pl3     1 SUB1       -0.222
     15 C3A        19.0210  -13.4180   21.5730 C.ar      1 SUB1        0.103
     16 C7A        17.7690  -13.9140   22.0830 C.ar      1 SUB1        0.045
     17 C10        20.2520  -13.9740   22.0450 C.ar      1 SUB1       -0.023
     18 C11        20.2060  -15.0050   23.0010 C.ar      1 SUB1       -0.069
     19 C12        18.9710  -15.5090   23.5300 C.ar      1 SUB1       -0.094
     20 C13        17.7400  -14.9590   23.0520 C.ar      1 SUB1       -0.053
     21 C14        19.8120  -11.6010   19.8600 C.3       1 SUB1        0.050
     22 C9         18.0980  -17.6840   24.9640 C.3       1 SUB1       -0.104
     23 C15        17.7220  -16.3400   25.6270 C.3       1 SUB1       -0.104
     24 C16        18.9830  -16.4650   24.8040 C.3       1 SUB1       -0.034
     25 C17        20.4640  -16.6310   25.2470 C.2       1 SUB1        0.074
     26 N4         21.1550  -17.6570   24.8780 N.2       1 SUB1       -0.058
     27 N5         22.4130  -15.7230   26.6390 N.ar      1 SUB1       -0.294
     28 C18        21.1190  -15.5360   26.1000 C.ar      1 SUB1        0.057
     29 C19        20.4370  -14.3180   26.3370 C.ar      1 SUB1       -0.028
     30 C20        21.0510  -13.3150   27.1050 C.ar      1 SUB1       -0.043
     31 C21        22.3350  -13.4960   27.6460 C.ar      1 SUB1       -0.036
     32 C22        23.0250  -14.7120   27.4120 C.ar      1 SUB1        0.008
     33 OH         20.5310  -18.6970   24.0270 O.3       1 SUB1       -0.145
     34 C23        21.1310  -19.9690   24.2640 C.3       1 SUB1        0.220
     35 C24        20.4590  -21.0230   23.3480 C.2       1 SUB1        0.273
     36 O2         20.6110  -22.2250   23.6010 O.2       1 SUB1       -0.367
     37 O3         19.7090  -20.6100   22.2700 O.3       1 SUB1       -0.275
     38 C25        18.1330  -21.2130   20.5100 C.3       1 SUB1       -0.037
     39 C26        19.1640  -21.7220   21.5370 C.3       1 SUB1        0.074
     40 H11         9.5772  -12.6088   24.6783 H         1 SUB1        0.192
     41 H12        10.3295  -13.5508   23.3632 H         1 SUB1        0.192
     42 H21        11.4360   -9.8085   24.4270 H         1 SUB1        0.192
     43 H22        10.1359  -10.7424   25.2146 H         1 SUB1        0.192
     44 H51        11.3357  -13.4607   21.6455 H         1 SUB1        0.063
     45 H61        13.0772  -13.4766   19.8827 H         1 SUB1        0.052
     46 H81        14.8678   -9.9379   21.5979 H         1 SUB1        0.052
     47 H91        13.1334   -9.9109   23.3614 H         1 SUB1        0.063
     48 H101       15.0962  -12.6737   19.1809 H         1 SUB1        0.159
     49 H111       17.0371  -11.4169   18.8068 H         1 SUB1        0.075
     50 H112       16.6712  -10.4201   20.2619 H         1 SUB1        0.075
     51 H171       21.2020  -13.6077   21.6730 H         1 SUB1        0.060
     52 H181       21.1378  -15.4345   23.3509 H         1 SUB1        0.066
     53 H201       16.7931  -15.3338   23.4235 H         1 SUB1        0.073
     54 H211       19.2704  -10.8861   19.2231 H         1 SUB1        0.057
     55 H212       20.4694  -11.0445   20.5442 H         1 SUB1        0.057
     56 H213       20.4119  -12.2663   19.2217 H         1 SUB1        0.057
     57 H221       18.4416  -18.5285   25.5794 H         1 SUB1        0.008
     58 H222       17.5245  -18.0566   24.1025 H         1 SUB1        0.008
     59 H231       16.8779  -15.7495   25.2413 H         1 SUB1        0.008
     60 H232       17.7950  -16.2215   26.7181 H         1 SUB1        0.008
     61 H291       19.4457  -14.1603   25.9277 H         1 SUB1        0.071
     62 H301       20.5247  -12.3843   27.2836 H         1 SUB1        0.073
     63 H311       22.7942  -12.7122   28.2375 H         1 SUB1        0.070
     64 H321       24.0160  -14.8648   27.8238 H         1 SUB1        0.082
     65 H341       22.2054  -19.9259   24.0320 H         1 SUB1        0.097
     66 H342       20.9855  -20.2624   25.3141 H         1 SUB1        0.097
     67 H381       17.7244  -22.0716   19.9570 H         1 SUB1        0.025
     68 H382       17.3113  -20.6966   21.0277 H         1 SUB1        0.025
     69 H383       18.6182  -20.5276   19.7996 H         1 SUB1        0.025
     70 H391       19.9698  -22.2452   21.0014 H         1 SUB1        0.061
     71 H392       18.6630  -22.4142   22.2296 H         1 SUB1        0.061
@<TRIPOS>BOND
     1    3    1 1  
     2    4    3 1  
     3    5    4 ar 
     4    9    4 ar 
     5    6    5 ar 
     6    7    6 ar 
     7    7    8 ar 
     8   10    7 1  
     9    8    9 ar 
    10   11   10 1  
    11   13   11 1  
    12   14   13 1  
    13   15   14 1  
    14   14   21 1  
    15   16   15 ar 
    16   17   15 ar 
    17   20   16 ar 
    18   18   17 ar 
    19   19   18 ar 
    20   19   20 ar 
    21   24   19 1  
    22   22   23 1  
    23   24   22 1  
    24   23   24 1  
    25   24   25 1  
    26   25   26 2  
    27   25   28 1  
    28   26   33 1  
    29   28   29 ar 
    30   29   30 ar 
    31   30   31 ar 
    32   31   32 ar 
    33   33   34 1  
    34   34   35 1  
    35   35   36 2  
    36   35   37 1  
    37   37   39 1  
    38   39   38 1  
    39   32   27 ar 
    40   28   27 ar 
    41   16   12 1  
    42   13   12 2  
    43    3    2 1  
    44    1   40 1  
    45    1   41 1  
    46    2   42 1  
    47    2   43 1  
    48    5   44 1  
    49    6   45 1  
    50    8   46 1  
    51    9   47 1  
    52   10   48 1  
    53   11   49 1  
    54   11   50 1  
    55   17   51 1  
    56   18   52 1  
    57   20   53 1  
    58   21   54 1  
    59   21   55 1  
    60   21   56 1  
    61   22   57 1  
    62   22   58 1  
    63   23   59 1  
    64   23   60 1  
    65   29   61 1  
    66   30   62 1  
    67   31   63 1  
    68   32   64 1  
    69   34   65 1  
    70   34   66 1  
    71   38   67 1  
    72   38   68 1  
    73   38   69 1  
    74   39   70 1  
    75   39   71 1  
@<TRIPOS>SUBSTRUCTURE
     1 SUB1        1 GROUP

