1g30_ligand
  -I-interpret- 

 71 75  0  0  0  0  0  0  0  0999 V2000
   10.2730  -12.6880   23.9230 N   0  0  0  0  0
   10.8730  -10.6680   24.4990 N   0  0  0  0  0
   11.0970  -11.6780   23.6710 C   0  3  0  0  0
   12.0790  -11.6850   22.6660 C   0  0  0  0  0
   12.0990  -12.6910   21.6450 C   0  0  0  0  0
   13.0860  -12.7030   20.6420 C   0  0  0  0  0
   14.0860  -11.7100   20.6240 C   0  0  0  0  0
   14.0990  -10.7020   21.6110 C   0  0  0  0  0
   13.1130  -10.6920   22.6100 C   0  0  0  0  0
   15.1220  -11.6910   19.6280 N   0  0  0  0  0
   16.5750  -11.4160   19.8050 C   0  0  0  0  0
   16.7180  -13.2600   21.5130 N   0  0  0  0  0
   17.4080  -12.3860   20.6790 C   0  0  0  0  0
   18.8210  -12.4030   20.6440 N   0  0  0  0  0
   19.0210  -13.4180   21.5730 C   0  0  0  0  0
   17.7690  -13.9140   22.0830 C   0  0  0  0  0
   20.2520  -13.9740   22.0450 C   0  0  0  0  0
   20.2060  -15.0050   23.0010 C   0  0  0  0  0
   18.9710  -15.5090   23.5300 C   0  0  0  0  0
   17.7400  -14.9590   23.0520 C   0  0  0  0  0
   19.8120  -11.6010   19.8600 C   0  0  0  0  0
   18.0980  -17.6840   24.9640 C   0  0  0  0  0
   17.7220  -16.3400   25.6270 C   0  0  0  0  0
   18.9830  -16.4650   24.8040 C   0  0  0  0  0
   20.4640  -16.6310   25.2470 C   0  0  0  0  0
   21.1550  -17.6570   24.8780 N   0  0  0  0  0
   22.4130  -15.7230   26.6390 N   0  0  0  0  0
   21.1190  -15.5360   26.1000 C   0  0  0  0  0
   20.4370  -14.3180   26.3370 C   0  0  0  0  0
   21.0510  -13.3150   27.1050 C   0  0  0  0  0
   22.3350  -13.4960   27.6460 C   0  0  0  0  0
   23.0250  -14.7120   27.4120 C   0  0  0  0  0
   20.5310  -18.6970   24.0270 O   0  0  0  0  0
   21.1310  -19.9690   24.2640 C   0  0  0  0  0
   20.4590  -21.0230   23.3480 C   0  0  0  0  0
   20.6110  -22.2250   23.6010 O   0  0  0  0  0
   19.7090  -20.6100   22.2700 O   0  0  0  0  0
   18.1330  -21.2130   20.5100 C   0  0  0  0  0
   19.1640  -21.7220   21.5370 C   0  0  0  0  0
    9.5772  -12.6088   24.6783 H   0  0  0  0  0
   10.3295  -13.5508   23.3632 H   0  0  0  0  0
   11.4360   -9.8085   24.4270 H   0  0  0  0  0
   10.1359  -10.7424   25.2146 H   0  0  0  0  0
   11.3357  -13.4607   21.6455 H   0  0  0  0  0
   13.0772  -13.4766   19.8827 H   0  0  0  0  0
   14.8678   -9.9379   21.5979 H   0  0  0  0  0
   13.1334   -9.9109   23.3614 H   0  0  0  0  0
   15.0962  -12.6737   19.1809 H   0  0  0  0  0
   17.0371  -11.4169   18.8068 H   0  0  0  0  0
   16.6712  -10.4201   20.2619 H   0  0  0  0  0
   21.2020  -13.6077   21.6730 H   0  0  0  0  0
   21.1378  -15.4345   23.3509 H   0  0  0  0  0
   16.7931  -15.3338   23.4235 H   0  0  0  0  0
   19.2704  -10.8861   19.2231 H   0  0  0  0  0
   20.4694  -11.0445   20.5442 H   0  0  0  0  0
   20.4119  -12.2663   19.2217 H   0  0  0  0  0
   18.4416  -18.5285   25.5794 H   0  0  0  0  0
   17.5245  -18.0566   24.1025 H   0  0  0  0  0
   16.8779  -15.7495   25.2413 H   0  0  0  0  0
   17.7950  -16.2215   26.7181 H   0  0  0  0  0
   19.4457  -14.1603   25.9277 H   0  0  0  0  0
   20.5247  -12.3843   27.2836 H   0  0  0  0  0
   22.7942  -12.7122   28.2375 H   0  0  0  0  0
   24.0160  -14.8648   27.8238 H   0  0  0  0  0
   22.2054  -19.9259   24.0320 H   0  0  0  0  0
   20.9855  -20.2624   25.3141 H   0  0  0  0  0
   17.7244  -22.0716   19.9570 H   0  0  0  0  0
   17.3113  -20.6966   21.0277 H   0  0  0  0  0
   18.6182  -20.5276   19.7996 H   0  0  0  0  0
   19.9698  -22.2452   21.0014 H   0  0  0  0  0
   18.6630  -22.4142   22.2296 H   0  0  0  0  0
  3  1  1  0  0  0
  4  3  1  0  0  0
  5  4  4  0  0  0
  9  4  4  0  0  0
  6  5  4  0  0  0
  7  6  4  0  0  0
  7  8  4  0  0  0
 10  7  1  0  0  0
  8  9  4  0  0  0
 11 10  1  0  0  0
 13 11  1  0  0  0
 14 13  1  0  0  0
 15 14  1  0  0  0
 14 21  1  0  0  0
 16 15  4  0  0  0
 17 15  4  0  0  0
 20 16  4  0  0  0
 18 17  4  0  0  0
 19 18  4  0  0  0
 19 20  4  0  0  0
 24 19  1  0  0  0
 22 23  1  0  0  0
 24 22  1  0  0  0
 23 24  1  0  0  0
 24 25  1  0  0  0
 25 26  2  0  0  0
 25 28  1  0  0  0
 26 33  1  0  0  0
 28 29  4  0  0  0
 29 30  4  0  0  0
 30 31  4  0  0  0
 31 32  4  0  0  0
 33 34  1  0  0  0
 34 35  1  0  0  0
 35 36  2  0  0  0
 35 37  1  0  0  0
 37 39  1  0  0  0
 39 38  1  0  0  0
 32 27  4  0  0  0
 28 27  4  0  0  0
 16 12  1  0  0  0
 13 12  2  0  0  0
  3  2  1  0  0  0
  1 40  1  0  0  0
  1 41  1  0  0  0
  2 42  1  0  0  0
  2 43  1  0  0  0
  5 44  1  0  0  0
  6 45  1  0  0  0
  8 46  1  0  0  0
  9 47  1  0  0  0
 10 48  1  0  0  0
 11 49  1  0  0  0
 11 50  1  0  0  0
 17 51  1  0  0  0
 18 52  1  0  0  0
 20 53  1  0  0  0
 21 54  1  0  0  0
 21 55  1  0  0  0
 21 56  1  0  0  0
 22 57  1  0  0  0
 22 58  1  0  0  0
 23 59  1  0  0  0
 23 60  1  0  0  0
 29 61  1  0  0  0
 30 62  1  0  0  0
 31 63  1  0  0  0
 32 64  1  0  0  0
 34 65  1  0  0  0
 34 66  1  0  0  0
 38 67  1  0  0  0
 38 68  1  0  0  0
 38 69  1  0  0  0
 39 70  1  0  0  0
 39 71  1  0  0  0
M  END
$$$$
