### 
### Created by X-TOOL on Mon Oct 24 22:34:59 2005
### 

@<TRIPOS>MOLECULE
1x38_ligand
   36    38     1     0     0
SMALL
GAST_HUCK


@<TRIPOS>ATOM
      1 C1         27.0890   29.0720   35.9570 C.ar      1 SUB1       -0.032
      2 C2         27.7210   29.3130   37.1930 C.ar      1 SUB1       -0.062
      3 C3         28.4370   30.5010   37.4110 C.ar      1 SUB1       -0.067
      4 C4         28.5150   31.4520   36.3900 C.ar      1 SUB1       -0.067
      5 C5         27.8770   31.2250   35.1650 C.ar      1 SUB1       -0.067
      6 C6         27.1540   30.0460   34.9400 C.ar      1 SUB1       -0.062
      7 C1B        25.2160   26.0070   36.3480 C.2       1 SUB1        0.150
      8 C2B        24.5150   24.9610   37.1050 C.3       1 SUB1        0.160
      9 C3B        23.9770   23.8700   36.1840 C.3       1 SUB1        0.126
     10 C4B        23.4810   24.4570   34.8340 C.3       1 SUB1        0.119
     11 C5B        24.6550   25.1200   34.0780 C.3       1 SUB1        0.122
     12 C6B        24.2230   25.7140   32.7260 C.3       1 SUB1        0.078
     13 O2B        25.3560   24.4450   38.1490 O.3       1 SUB1       -0.370
     14 O3B        22.8980   23.2080   36.8500 O.3       1 SUB1       -0.384
     15 O4B        22.9120   23.4070   34.0740 O.3       1 SUB1       -0.386
     16 N1B        25.2550   26.1150   35.0080 N.pl3     1 SUB1       -0.233
     17 O6B        23.3330   26.7800   32.9360 O.3       1 SUB1       -0.392
     18 N2B        25.8650   27.0380   36.8640 N.2       1 SUB1       -0.326
     19 C7B        26.3190   27.8060   35.8170 C.2       1 SUB1        0.013
     20 C8B        25.9600   27.2630   34.6280 C.2       1 SUB1        0.046
     21 H21        27.6538   28.5741   37.9833 H         1 SUB1        0.058
     22 H31        28.9248   30.6789   38.3626 H         1 SUB1        0.060
     23 H41        29.0716   32.3688   36.5473 H         1 SUB1        0.058
     24 H51        27.9430   31.9704   34.3808 H         1 SUB1        0.060
     25 H61        26.6500   29.8846   33.9939 H         1 SUB1        0.058
     26 H81        23.6462   25.4303   37.5896 H         1 SUB1        0.086
     27 H91        24.7791   23.1453   35.9806 H         1 SUB1        0.068
     28 H101       22.7113   25.2182   35.0292 H         1 SUB1        0.065
     29 H111       25.4112   24.3500   33.8652 H         1 SUB1        0.071
     30 H121       23.7260   24.9362   32.1277 H         1 SUB1        0.059
     31 H122       25.1100   26.0797   32.1879 H         1 SUB1        0.059
     32 H131       25.6626   25.1625   38.6909 H         1 SUB1        0.214
     33 H141       22.5729   22.5040   36.3012 H         1 SUB1        0.210
     34 H151       22.1948   23.0180   34.5606 H         1 SUB1        0.210
     35 H171       23.7621   27.4524   33.4519 H         1 SUB1        0.209
     36 H201       26.1687   27.6297   33.6241 H         1 SUB1        0.088
@<TRIPOS>BOND
     1    1    2 ar 
     2    1    6 ar 
     3   19    1 1  
     4    2    3 ar 
     5    3    4 ar 
     6    5    4 ar 
     7    6    5 ar 
     8    7    8 1  
     9    7   16 1  
    10   18    7 2  
    11    8    9 1  
    12    8   13 1  
    13    9   10 1  
    14    9   14 1  
    15   11   10 1  
    16   10   15 1  
    17   11   12 1  
    18   16   11 1  
    19   12   17 1  
    20   16   20 1  
    21   18   19 1  
    22   19   20 2  
    23    2   21 1  
    24    3   22 1  
    25    4   23 1  
    26    5   24 1  
    27    6   25 1  
    28    8   26 1  
    29    9   27 1  
    30   10   28 1  
    31   11   29 1  
    32   12   30 1  
    33   12   31 1  
    34   13   32 1  
    35   14   33 1  
    36   15   34 1  
    37   17   35 1  
    38   20   36 1  
@<TRIPOS>SUBSTRUCTURE
     1 SUB1        1 GROUP

