### 
### Created by X-TOOL on Tue Oct 25 02:21:30 2005
### 

@<TRIPOS>MOLECULE
1odj_ligand
   33    35     1     0     0
SMALL
GAST_HUCK


@<TRIPOS>ATOM
      1 O5         -0.9440  -80.5800 -147.7660 O.3       1 SUB1       -0.392
      2 C5          0.2920  -81.2070 -147.4800 C.3       1 SUB1        0.073
      3 C4          1.3310  -80.2020 -147.9780 C.3       1 SUB1        0.114
      4 O4          1.2970  -78.8900 -147.3070 O.3       1 SUB1       -0.337
      5 C3          2.7630  -80.6770 -147.7670 C.3       1 SUB1        0.115
      6 O3          3.4690  -80.3250 -148.9910 O.3       1 SUB1       -0.386
      7 C2          3.3170  -79.9050 -146.5450 C.3       1 SUB1        0.139
      8 O2          4.5840  -79.2700 -146.7520 O.3       1 SUB1       -0.384
      9 C1          2.1360  -78.9680 -146.1380 C.3       1 SUB1        0.199
     10 N9          1.3810  -79.3580 -144.8990 N.pl3     1 SUB1       -0.210
     11 C8          0.3730  -78.6000 -144.3460 C.2       1 SUB1        0.096
     12 N7         -0.1430  -79.1270 -143.2740 N.2       1 SUB1       -0.324
     13 C5          0.5570  -80.3140 -143.0910 C.2       1 SUB1        0.093
     14 C6          0.4250  -81.3130 -142.0760 C.2       1 SUB1        0.213
     15 O6         -0.3620  -81.3440 -141.1160 O.2       1 SUB1       -0.409
     16 N1          1.3250  -82.3540 -142.2610 N.am      1 SUB1       -0.184
     17 C2          2.2380  -82.4320 -143.2770 C.2       1 SUB1        0.234
     18 N2          3.0130  -83.5290 -143.2710 N.pl3     1 SUB1       -0.281
     19 N3          2.3790  -81.5090 -144.2340 N.2       1 SUB1       -0.276
     20 C4          1.5090  -80.4810 -144.0790 C.2       1 SUB1        0.116
     21 H11        -0.9923  -79.7519 -147.3030 H         1 SUB1        0.209
     22 H21         0.3811  -82.1624 -148.0178 H         1 SUB1        0.058
     23 H22         0.4023  -81.3826 -146.3997 H         1 SUB1        0.058
     24 H31         1.1510  -80.0565 -149.0534 H         1 SUB1        0.065
     25 H51         2.8099  -81.7615 -147.5889 H         1 SUB1        0.065
     26 H61         4.3764  -80.5977 -148.9215 H         1 SUB1        0.210
     27 H71         3.4745  -80.6247 -145.7282 H         1 SUB1        0.068
     28 H81         4.5099  -78.6413 -147.4603 H         1 SUB1        0.210
     29 H91         2.5526  -77.9689 -145.9428 H         1 SUB1        0.100
     30 H111        0.0401  -77.6516 -144.7652 H         1 SUB1        0.118
     31 H161        1.3043  -83.1047 -141.6007 H         1 SUB1        0.252
     32 H181        3.7249  -83.6606 -144.0036 H         1 SUB1        0.190
     33 H182        2.8954  -84.2386 -142.5338 H         1 SUB1        0.190
@<TRIPOS>BOND
     1    1    2 1  
     2    2    3 1  
     3    3    4 1  
     4    3    5 1  
     5    4    9 1  
     6    5    6 1  
     7    5    7 1  
     8    7    8 1  
     9    7    9 1  
    10    9   10 1  
    11   10   11 1  
    12   10   20 1  
    13   11   12 2  
    14   12   13 1  
    15   13   14 1  
    16   13   20 2  
    17   14   15 2  
    18   14   16 am 
    19   16   17 1  
    20   17   18 1  
    21   17   19 2  
    22   19   20 1  
    23    1   21 1  
    24    2   22 1  
    25    2   23 1  
    26    3   24 1  
    27    5   25 1  
    28    6   26 1  
    29    7   27 1  
    30    8   28 1  
    31    9   29 1  
    32   11   30 1  
    33   16   31 1  
    34   18   32 1  
    35   18   33 1  
@<TRIPOS>SUBSTRUCTURE
     1 SUB1        1 GROUP

