### 
### Created by X-TOOL on Tue Oct 25 01:25:52 2005
### 

@<TRIPOS>MOLECULE
1a1e_ligand
   73    74     1     0     0
SMALL
GAST_HUCK


@<TRIPOS>ATOM
      1 H551       43.5632   -8.7244   42.7773 H         1 SUB1        0.080
      2 H581       43.7293   -7.0606   44.6308 H         1 SUB1        0.035
      3 H582       42.7334   -5.9367   43.6451 H         1 SUB1        0.035
      4 H591       44.9755   -5.2649   43.3235 H         1 SUB1        0.049
      5 H592       44.5258   -6.1711   41.8392 H         1 SUB1        0.049
      6 H361       42.7378   -9.7833   36.2893 H         1 SUB1        0.047
      7 H362       44.5062   -9.4898   36.4047 H         1 SUB1        0.047
      8 H363       43.4764   -8.3951   35.4210 H         1 SUB1        0.047
      9 H381       42.3738   -6.5282   39.2592 H         1 SUB1        0.082
     10 H411       40.1031   -6.7573   40.2917 H         1 SUB1        0.044
     11 H412       39.8744   -8.2614   39.3368 H         1 SUB1        0.044
     12 H431       39.2914   -8.1406   37.0549 H         1 SUB1       -0.021
     13 H441       40.6711   -4.6140   39.0176 H         1 SUB1       -0.021
     14 H451       38.5622   -6.7805   35.1361 H         1 SUB1       -0.018
     15 H461       39.9456   -3.2296   37.0933 H         1 SUB1       -0.018
     16 H651       43.7496   -9.9743   44.0990 H         1 SUB1        0.052
     17 H652       42.8127  -11.2901   44.8848 H         1 SUB1        0.052
     18 H661       40.4890  -10.8586   45.5335 H         1 SUB1        0.052
     19 H662       39.7665   -9.2458   45.2118 H         1 SUB1        0.052
     20 H671       43.7750   -8.6833   46.1881 H         1 SUB1        0.029
     21 H672       44.3843  -10.3387   46.5276 H         1 SUB1        0.029
     22 H681       42.7373   -9.4929   48.2098 H         1 SUB1        0.027
     23 H682       42.2605  -11.0266   47.4052 H         1 SUB1        0.027
     24 H691       40.2896   -9.7888   47.6209 H         1 SUB1        0.032
     25 H701       39.9023   -7.5076   46.8476 H         1 SUB1        0.027
     26 H702       41.6493   -7.3392   46.4651 H         1 SUB1        0.027
     27 H711       42.0448   -8.1273   48.9007 H         1 SUB1        0.026
     28 H712       40.3083   -7.7446   49.1554 H         1 SUB1        0.026
     29 H721       42.4119   -5.7988   48.1057 H         1 SUB1        0.026
     30 H722       41.7780   -5.8525   49.7856 H         1 SUB1        0.026
     31 H731       40.5443   -4.2072   48.4124 H         1 SUB1        0.023
     32 H732       39.4832   -5.5613   48.9290 H         1 SUB1        0.023
     33 H733       40.1170   -5.5076   47.2492 H         1 SUB1        0.023
     34 C          43.2930   -8.1280   37.5500 C.2       1 SUB1        0.175
     35 O          44.0670   -7.1860   37.7880 O.2       1 SUB1       -0.397
     36 CH3        43.5190   -9.0100   36.3320 C.3       1 SUB1        0.026
     37 N          42.1690   -8.3110   38.2080 N.am      1 SUB1       -0.264
     38 CA         41.8750   -7.5040   39.3540 C.3       1 SUB1        0.138
     39 C          42.3970   -8.1890   40.5900 C.2       1 SUB1        0.206
     40 O          42.8670   -9.3290   40.5910 O.2       1 SUB1       -0.394
     41 CB         40.3910   -7.2910   39.3740 C.3       1 SUB1       -0.000
     42 CG         40.0200   -6.4670   38.1650 C.ar      1 SUB1       -0.145
     43 CD1        39.4330   -7.0660   37.0710 C.ar      1 SUB1       -0.179
     44 CD2        40.2030   -5.0890   38.1630 C.ar      1 SUB1       -0.179
     45 CE1        39.0230   -6.2990   35.9910 C.ar      1 SUB1       -0.140
     46 CE2        39.7950   -4.3030   37.0800 C.ar      1 SUB1       -0.140
     47 CZ         39.1970   -4.9130   35.9920 C.ar      1 SUB1        0.074
     48 OH         38.7140   -4.1030   34.8990 O.3       1 SUB1       -0.110
     49 P          39.5630   -3.9590   33.5410 P.3       1 SUB1        0.476
     50 O1P        39.2960   -5.2230   32.8550 O.co2     1 SUB1       -0.376
     51 O2P        38.9860   -2.7290   32.9200 O.co2     1 SUB1       -0.376
     52 O3P        40.9750   -3.8330   34.0580 O.co2     1 SUB1       -0.376
     53 H371       41.5340   -8.9980   37.9150 H         1 SUB1        0.188
     54 N          42.3460   -7.4520   41.6620 N.am      1 SUB1       -0.263
     55 CA         42.8210   -7.9260   42.9250 C.3       1 SUB1        0.134
     56 C          41.6490   -8.4730   43.7280 C.2       1 SUB1        0.204
     57 O          40.5250   -7.9950   43.5040 O.2       1 SUB1       -0.394
     58 CB         43.4630   -6.7590   43.6070 C.3       1 SUB1       -0.001
     59 CG         44.7130   -6.2540   42.9200 C.3       1 SUB1       -0.010
     60 CD         45.8500   -7.2030   43.1550 C.2       1 SUB1        0.028
     61 OE1        46.3510   -7.2360   44.2790 O.co2     1 SUB1       -0.567
     62 OE2        46.2130   -7.9200   42.2380 O.co2     1 SUB1       -0.567
     63 H541       41.9720   -6.5480   41.6020 H         1 SUB1        0.188
     64 N1         41.7710   -9.4590   44.6560 N.am      1 SUB1       -0.271
     65 C2         43.0100  -10.2080   44.8790 C.3       1 SUB1        0.034
     66 C6         40.6720   -9.7740   45.5450 C.3       1 SUB1        0.037
     67 C3         43.5030   -9.7480   46.2370 C.3       1 SUB1       -0.032
     68 C4         42.3970   -9.9440   47.2660 C.3       1 SUB1       -0.047
     69 C5         41.0210   -9.3410   46.9320 C.3       1 SUB1       -0.021
     70 C1'        40.9160   -7.8430   47.1120 C.3       1 SUB1       -0.048
     71 C2'        41.2000   -7.5140   48.5540 C.3       1 SUB1       -0.053
     72 C3'        41.5460   -6.0620   48.7310 C.3       1 SUB1       -0.056
     73 C4'        40.3430   -5.2830   48.3020 C.3       1 SUB1       -0.065
@<TRIPOS>BOND
     1   55    1 1  
     2   58    2 1  
     3   58    3 1  
     4   59    4 1  
     5   59    5 1  
     6   36    6 1  
     7   36    7 1  
     8   36    8 1  
     9   38    9 1  
    10   41   10 1  
    11   41   11 1  
    12   43   12 1  
    13   44   13 1  
    14   45   14 1  
    15   46   15 1  
    16   65   16 1  
    17   65   17 1  
    18   66   18 1  
    19   66   19 1  
    20   67   20 1  
    21   67   21 1  
    22   68   22 1  
    23   68   23 1  
    24   69   24 1  
    25   70   25 1  
    26   70   26 1  
    27   71   27 1  
    28   71   28 1  
    29   72   29 1  
    30   72   30 1  
    31   73   31 1  
    32   73   32 1  
    33   73   33 1  
    34   34   35 2  
    35   34   36 1  
    36   37   53 1  
    37   38   37 1  
    38   38   41 1  
    39   39   38 1  
    40   39   40 2  
    41   41   42 1  
    42   42   44 ar 
    43   42   43 ar 
    44   43   45 ar 
    45   45   47 ar 
    46   47   48 1  
    47   46   47 ar 
    48   44   46 ar 
    49   48   49 1  
    50   49   52 2  
    51   49   51 2  
    52   49   50 2  
    53   56   55 1  
    54   55   58 1  
    55   55   54 1  
    56   54   63 1  
    57   58   59 1  
    58   59   60 1  
    59   60   61 2  
    60   60   62 2  
    61   56   57 2  
    62   64   66 1  
    63   64   65 1  
    64   65   67 1  
    65   67   68 1  
    66   69   68 1  
    67   69   70 1  
    68   66   69 1  
    69   70   71 1  
    70   71   72 1  
    71   72   73 1  
    72   37   34 am 
    73   54   39 am 
    74   56   64 am 
@<TRIPOS>SUBSTRUCTURE
     1 SUB1        1 GROUP

