1a1e_ligand
  -I-interpret- 

 73 74  0  0  0  0  0  0  0  0999 V2000
   43.5632   -8.7244   42.7773 H   0  0  0  0  0
   43.7293   -7.0606   44.6308 H   0  0  0  0  0
   42.7334   -5.9367   43.6451 H   0  0  0  0  0
   44.9755   -5.2649   43.3235 H   0  0  0  0  0
   44.5258   -6.1711   41.8392 H   0  0  0  0  0
   42.7378   -9.7833   36.2893 H   0  0  0  0  0
   44.5062   -9.4898   36.4047 H   0  0  0  0  0
   43.4764   -8.3951   35.4210 H   0  0  0  0  0
   42.3738   -6.5282   39.2592 H   0  0  0  0  0
   40.1031   -6.7573   40.2917 H   0  0  0  0  0
   39.8744   -8.2614   39.3368 H   0  0  0  0  0
   39.2914   -8.1406   37.0549 H   0  0  0  0  0
   40.6711   -4.6140   39.0176 H   0  0  0  0  0
   38.5622   -6.7805   35.1361 H   0  0  0  0  0
   39.9456   -3.2296   37.0933 H   0  0  0  0  0
   43.7496   -9.9743   44.0990 H   0  0  0  0  0
   42.8127  -11.2901   44.8848 H   0  0  0  0  0
   40.4890  -10.8586   45.5335 H   0  0  0  0  0
   39.7665   -9.2458   45.2118 H   0  0  0  0  0
   43.7750   -8.6833   46.1881 H   0  0  0  0  0
   44.3843  -10.3387   46.5276 H   0  0  0  0  0
   42.7373   -9.4929   48.2098 H   0  0  0  0  0
   42.2605  -11.0266   47.4052 H   0  0  0  0  0
   40.2896   -9.7888   47.6209 H   0  0  0  0  0
   39.9023   -7.5076   46.8476 H   0  0  0  0  0
   41.6493   -7.3392   46.4651 H   0  0  0  0  0
   42.0448   -8.1273   48.9007 H   0  0  0  0  0
   40.3083   -7.7446   49.1554 H   0  0  0  0  0
   42.4119   -5.7988   48.1057 H   0  0  0  0  0
   41.7780   -5.8525   49.7856 H   0  0  0  0  0
   40.5443   -4.2072   48.4124 H   0  0  0  0  0
   39.4832   -5.5613   48.9290 H   0  0  0  0  0
   40.1170   -5.5076   47.2492 H   0  0  0  0  0
   43.2930   -8.1280   37.5500 C   0  0  0  0  0
   44.0670   -7.1860   37.7880 O   0  0  0  0  0
   43.5190   -9.0100   36.3320 C   0  0  0  0  0
   42.1690   -8.3110   38.2080 N   0  0  0  0  0
   41.8750   -7.5040   39.3540 C   0  0  0  0  0
   42.3970   -8.1890   40.5900 C   0  0  0  0  0
   42.8670   -9.3290   40.5910 O   0  0  0  0  0
   40.3910   -7.2910   39.3740 C   0  0  0  0  0
   40.0200   -6.4670   38.1650 C   0  0  0  0  0
   39.4330   -7.0660   37.0710 C   0  0  0  0  0
   40.2030   -5.0890   38.1630 C   0  0  0  0  0
   39.0230   -6.2990   35.9910 C   0  0  0  0  0
   39.7950   -4.3030   37.0800 C   0  0  0  0  0
   39.1970   -4.9130   35.9920 C   0  0  0  0  0
   38.7140   -4.1030   34.8990 O   0  0  0  0  0
   39.5630   -3.9590   33.5410 P   0  0  0  0  0
   39.2960   -5.2230   32.8550 O   0  0  0  0  0
   38.9860   -2.7290   32.9200 O   0  5  0  0  0
   40.9750   -3.8330   34.0580 O   0  5  0  0  0
   41.5340   -8.9980   37.9150 H   0  0  0  0  0
   42.3460   -7.4520   41.6620 N   0  0  0  0  0
   42.8210   -7.9260   42.9250 C   0  0  0  0  0
   41.6490   -8.4730   43.7280 C   0  0  0  0  0
   40.5250   -7.9950   43.5040 O   0  0  0  0  0
   43.4630   -6.7590   43.6070 C   0  0  0  0  0
   44.7130   -6.2540   42.9200 C   0  0  0  0  0
   45.8500   -7.2030   43.1550 C   0  0  0  0  0
   46.3510   -7.2360   44.2790 O   0  5  0  0  0
   46.2130   -7.9200   42.2380 O   0  0  0  0  0
   41.9720   -6.5480   41.6020 H   0  0  0  0  0
   41.7710   -9.4590   44.6560 N   0  0  0  0  0
   43.0100  -10.2080   44.8790 C   0  0  0  0  0
   40.6720   -9.7740   45.5450 C   0  0  0  0  0
   43.5030   -9.7480   46.2370 C   0  0  0  0  0
   42.3970   -9.9440   47.2660 C   0  0  0  0  0
   41.0210   -9.3410   46.9320 C   0  0  0  0  0
   40.9160   -7.8430   47.1120 C   0  0  0  0  0
   41.2000   -7.5140   48.5540 C   0  0  0  0  0
   41.5460   -6.0620   48.7310 C   0  0  0  0  0
   40.3430   -5.2830   48.3020 C   0  0  0  0  0
 55  1  1  0  0  0
 58  2  1  0  0  0
 58  3  1  0  0  0
 59  4  1  0  0  0
 59  5  1  0  0  0
 36  6  1  0  0  0
 36  7  1  0  0  0
 36  8  1  0  0  0
 38  9  1  0  0  0
 41 10  1  0  0  0
 41 11  1  0  0  0
 43 12  1  0  0  0
 44 13  1  0  0  0
 45 14  1  0  0  0
 46 15  1  0  0  0
 65 16  1  0  0  0
 65 17  1  0  0  0
 66 18  1  0  0  0
 66 19  1  0  0  0
 67 20  1  0  0  0
 67 21  1  0  0  0
 68 22  1  0  0  0
 68 23  1  0  0  0
 69 24  1  0  0  0
 70 25  1  0  0  0
 70 26  1  0  0  0
 71 27  1  0  0  0
 71 28  1  0  0  0
 72 29  1  0  0  0
 72 30  1  0  0  0
 73 31  1  0  0  0
 73 32  1  0  0  0
 73 33  1  0  0  0
 34 35  2  0  0  0
 34 36  1  0  0  0
 37 53  1  0  0  0
 38 37  1  0  0  0
 38 41  1  0  0  0
 39 38  1  0  0  0
 39 40  2  0  0  0
 41 42  1  0  0  0
 42 44  4  0  0  0
 42 43  4  0  0  0
 43 45  4  0  0  0
 45 47  4  0  0  0
 47 48  1  0  0  0
 46 47  4  0  0  0
 44 46  4  0  0  0
 48 49  1  0  0  0
 49 52  1  0  0  0
 49 51  1  0  0  0
 49 50  2  0  0  0
 56 55  1  0  0  0
 55 58  1  0  0  0
 55 54  1  0  0  0
 54 63  1  0  0  0
 58 59  1  0  0  0
 59 60  1  0  0  0
 60 61  1  0  0  0
 60 62  2  0  0  0
 56 57  2  0  0  0
 64 66  1  0  0  0
 64 65  1  0  0  0
 65 67  1  0  0  0
 67 68  1  0  0  0
 69 68  1  0  0  0
 69 70  1  0  0  0
 66 69  1  0  0  0
 70 71  1  0  0  0
 71 72  1  0  0  0
 72 73  1  0  0  0
 37 34  1  0  0  0
 54 39  1  0  0  0
 56 64  1  0  0  0
M  END
$$$$
