### 
### Created by X-TOOL on Mon Oct 24 22:19:33 2005
### 

@<TRIPOS>MOLECULE
1y3n_ligand
   38    39     1     0     0
SMALL
GAST_HUCK


@<TRIPOS>ATOM
      1 C1        -14.7140   -8.1860   24.9430 C.3       1 SUB1        0.209
      2 C2        -13.1820   -8.0830   24.9120 C.3       1 SUB1        0.145
      3 O2        -12.7880   -6.7860   25.3210 O.3       1 SUB1       -0.381
      4 C3        -12.6140   -9.0900   25.8690 C.3       1 SUB1        0.115
      5 O3        -11.1880   -9.1130   25.8680 O.3       1 SUB1       -0.375
      6 C4        -13.2830   -9.2040   27.1900 C.2       1 SUB1       -0.015
      7 C5        -14.6870   -8.9270   27.2730 C.2       1 SUB1        0.097
      8 O5        -15.2290   -8.0450   26.2840 O.3       1 SUB1       -0.295
      9 C6        -15.2500   -8.7510   28.5800 C.2       1 SUB1        0.061
     10 O6A       -16.0910   -7.8330   28.7200 O.co2     1 SUB1       -0.572
     11 O6B       -14.8600   -9.4670   29.5180 O.co2     1 SUB1       -0.572
     12 C1        -18.7700   -5.9440   22.3480 C.3       1 SUB1        0.189
     13 C2        -18.8900   -6.3390   23.8300 C.3       1 SUB1        0.134
     14 O2        -19.4980   -7.6150   23.9400 O.3       1 SUB1       -0.384
     15 C3        -17.5160   -6.3640   24.5120 C.3       1 SUB1        0.117
     16 O3        -17.6460   -6.9140   25.8160 O.3       1 SUB1       -0.386
     17 C4        -16.5360   -7.2050   23.6860 C.3       1 SUB1        0.128
     18 O4        -15.2140   -7.1080   24.2340 O.3       1 SUB1       -0.333
     19 C5        -16.4930   -6.6840   22.2610 C.3       1 SUB1        0.130
     20 O5        -17.8050   -6.7720   21.6710 O.3       1 SUB1       -0.327
     21 C6        -15.4760   -7.4500   21.4330 C.2       1 SUB1        0.059
     22 O6A       -14.2690   -7.1340   21.5530 O.co2     1 SUB1       -0.564
     23 O6B       -15.8700   -8.3760   20.6930 O.co2     1 SUB1       -0.564
     24 O1        -18.3570   -4.6250   22.2500 O.3       1 SUB1       -0.365
     25 H11       -15.0393   -9.1406   24.5037 H         1 SUB1        0.099
     26 H21       -12.8138   -8.2815   23.8946 H         1 SUB1        0.071
     27 H31       -13.1613   -6.1420   24.7307 H         1 SUB1        0.211
     28 H41       -12.8733  -10.0489   25.3964 H         1 SUB1        0.082
     29 H51       -10.8584   -8.2577   26.1175 H         1 SUB1        0.214
     30 H61       -12.7193   -9.4917   28.0762 H         1 SUB1        0.061
     31 H121      -19.7514   -6.0598   21.8649 H         1 SUB1        0.094
     32 H131      -19.5222   -5.5975   24.3403 H         1 SUB1        0.067
     33 H141      -19.5690   -7.8527   24.8570 H         1 SUB1        0.210
     34 H151      -17.1317   -5.3362   24.5892 H         1 SUB1        0.065
     35 H161      -16.7951   -6.9294   26.2382 H         1 SUB1        0.210
     36 H171      -16.8629   -8.2553   23.6897 H         1 SUB1        0.069
     37 H191      -16.1913   -5.6265   22.2853 H         1 SUB1        0.084
     38 H241      -17.5037   -4.5305   22.6567 H         1 SUB1        0.213
@<TRIPOS>BOND
     1    1    2 1  
     2    1    8 1  
     3   18    1 1  
     4    2    3 1  
     5    2    4 1  
     6    4    5 1  
     7    4    6 1  
     8    7    6 2  
     9    8    7 1  
    10    7    9 1  
    11    9   10 2  
    12    9   11 2  
    13   13   12 1  
    14   12   20 1  
    15   12   24 1  
    16   13   14 1  
    17   15   13 1  
    18   15   16 1  
    19   17   15 1  
    20   17   18 1  
    21   17   19 1  
    22   19   20 1  
    23   19   21 1  
    24   21   22 2  
    25   21   23 2  
    26    1   25 1  
    27    2   26 1  
    28    3   27 1  
    29    4   28 1  
    30    5   29 1  
    31    6   30 1  
    32   12   31 1  
    33   13   32 1  
    34   14   33 1  
    35   15   34 1  
    36   16   35 1  
    37   17   36 1  
    38   19   37 1  
    39   24   38 1  
@<TRIPOS>SUBSTRUCTURE
     1 SUB1        1 GROUP

