### 
### Created by X-TOOL on Mon Oct 24 23:14:34 2005
### 

@<TRIPOS>MOLECULE
1sw1_ligand
   23    23     1     0     0
SMALL
GAST_HUCK


@<TRIPOS>ATOM
      1 N          13.5970    2.1320   15.1660 N.4       1 SUB1        0.258
      2 CD         12.3000    2.1790   15.7850 C.3       1 SUB1       -0.028
      3 CA         13.9600    3.4960   14.8080 C.3       1 SUB1        0.020
      4 CB         13.4950    4.2730   16.0480 C.3       1 SUB1        0.007
      5 CG         12.5720    3.3170   16.7550 C.3       1 SUB1       -0.004
      6 CE         14.4490    1.6270   16.2540 C.3       1 SUB1       -0.039
      7 CF         13.5800    1.3710   13.9090 C.3       1 SUB1       -0.039
      8 C          15.4350    3.5270   14.5670 C.2       1 SUB1        0.076
      9 O          15.8980    3.2440   13.4280 O.co2     1 SUB1       -0.561
     10 OXT        16.1370    3.8610   15.5430 O.co2     1 SUB1       -0.561
     11 H21        12.0506    1.2408   16.3023 H         1 SUB1        0.082
     12 H22        11.5038    2.4246   15.0668 H         1 SUB1        0.082
     13 H31        13.4322    3.8451   13.9083 H         1 SUB1        0.107
     14 H41        12.9601    5.1891   15.7570 H         1 SUB1        0.036
     15 H42        14.3503    4.5354   16.6880 H         1 SUB1        0.036
     16 H51        13.0508    2.9319   17.6674 H         1 SUB1        0.032
     17 H52        11.6319    3.8230   17.0198 H         1 SUB1        0.032
     18 H61        14.1533    0.5972   16.5033 H         1 SUB1        0.078
     19 H62        14.3299    2.2674   17.1404 H         1 SUB1        0.078
     20 H63        15.5007    1.6387   15.9317 H         1 SUB1        0.078
     21 H71        12.9050    1.8618   13.1924 H         1 SUB1        0.078
     22 H72        13.2261    0.3480   14.1044 H         1 SUB1        0.078
     23 H73        14.5960    1.3336   13.4892 H         1 SUB1        0.078
@<TRIPOS>BOND
     1    1    2 1  
     2    1    3 1  
     3    1    6 1  
     4    1    7 1  
     5    2    5 1  
     6    3    4 1  
     7    3    8 1  
     8    4    5 1  
     9    8    9 2  
    10    8   10 2  
    11    2   11 1  
    12    2   12 1  
    13    3   13 1  
    14    4   14 1  
    15    4   15 1  
    16    5   16 1  
    17    5   17 1  
    18    6   18 1  
    19    6   19 1  
    20    6   20 1  
    21    7   21 1  
    22    7   22 1  
    23    7   23 1  
@<TRIPOS>SUBSTRUCTURE
     1 SUB1        1 GROUP

