1sw1_ligand
  -I-interpret- 

 23 23  0  0  0  0  0  0  0  0999 V2000
   13.5970    2.1320   15.1660 N   0  3  0  0  0
   12.3000    2.1790   15.7850 C   0  0  0  0  0
   13.9600    3.4960   14.8080 C   0  0  0  0  0
   13.4950    4.2730   16.0480 C   0  0  0  0  0
   12.5720    3.3170   16.7550 C   0  0  0  0  0
   14.4490    1.6270   16.2540 C   0  0  0  0  0
   13.5800    1.3710   13.9090 C   0  0  0  0  0
   15.4350    3.5270   14.5670 C   0  0  0  0  0
   15.8980    3.2440   13.4280 O   0  5  0  0  0
   16.1370    3.8610   15.5430 O   0  0  0  0  0
   12.0506    1.2408   16.3023 H   0  0  0  0  0
   11.5038    2.4246   15.0668 H   0  0  0  0  0
   13.4322    3.8451   13.9083 H   0  0  0  0  0
   12.9601    5.1891   15.7570 H   0  0  0  0  0
   14.3503    4.5354   16.6880 H   0  0  0  0  0
   13.0508    2.9319   17.6674 H   0  0  0  0  0
   11.6319    3.8230   17.0198 H   0  0  0  0  0
   14.1533    0.5972   16.5033 H   0  0  0  0  0
   14.3299    2.2674   17.1404 H   0  0  0  0  0
   15.5007    1.6387   15.9317 H   0  0  0  0  0
   12.9050    1.8618   13.1924 H   0  0  0  0  0
   13.2261    0.3480   14.1044 H   0  0  0  0  0
   14.5960    1.3336   13.4892 H   0  0  0  0  0
  1  2  1  0  0  0
  1  3  1  0  0  0
  1  6  1  0  0  0
  1  7  1  0  0  0
  2  5  1  0  0  0
  3  4  1  0  0  0
  3  8  1  0  0  0
  4  5  1  0  0  0
  8  9  1  0  0  0
  8 10  2  0  0  0
  2 11  1  0  0  0
  2 12  1  0  0  0
  3 13  1  0  0  0
  4 14  1  0  0  0
  4 15  1  0  0  0
  5 16  1  0  0  0
  5 17  1  0  0  0
  6 18  1  0  0  0
  6 19  1  0  0  0
  6 20  1  0  0  0
  7 21  1  0  0  0
  7 22  1  0  0  0
  7 23  1  0  0  0
M  END
$$$$
