### 
### Created by X-TOOL on Mon Oct 24 22:39:34 2005
### 

@<TRIPOS>MOLECULE
1eld_ligand
   52    53     1     0     0
SMALL
GAST_HUCK


@<TRIPOS>ATOM
      1 C1         40.5660   23.9890   37.1550 C.2       1 SUB1        0.303
      2 C2         41.0790   25.0440   38.1940 C.3       1 SUB1        0.475
      3 O          39.8620   24.2650   36.1840 O.2       1 SUB1       -0.335
      4 F1         40.1680   26.0130   38.4550 F         1 SUB1       -0.170
      5 F2         42.1880   25.7120   37.8140 F         1 SUB1       -0.170
      6 F3         41.3470   24.4930   39.3840 F         1 SUB1       -0.170
      7 N          40.9700   23.1420   37.5630 N.am      1 SUB1       -0.256
      8 CA         40.6090   21.7700   37.2920 C.3       1 SUB1        0.141
      9 C          39.0940   21.4720   37.3760 C.2       1 SUB1        0.206
     10 O          38.4750   21.6320   38.4420 O.2       1 SUB1       -0.394
     11 CB         41.5110   21.1280   38.2940 C.3       1 SUB1        0.022
     12 CG         41.2750   19.7220   38.7630 C.ar      1 SUB1       -0.038
     13 CD1        40.7010   18.7190   37.9480 C.ar      1 SUB1       -0.060
     14 CD2        41.7130   19.4170   40.0480 C.ar      1 SUB1       -0.060
     15 CE1        40.5660   17.4020   38.4320 C.ar      1 SUB1       -0.069
     16 CE2        41.5820   18.1070   40.5100 C.ar      1 SUB1       -0.069
     17 CZ         41.0150   17.1030   39.7210 C.ar      1 SUB1       -0.069
     18 N          38.5180   21.0400   36.2340 N.am      1 SUB1       -0.263
     19 CA         37.0740   20.7830   36.1130 C.3       1 SUB1        0.138
     20 C          36.5670   19.5410   36.8410 C.2       1 SUB1        0.246
     21 O          36.4060   18.4490   36.2810 O.2       1 SUB1       -0.372
     22 CB         36.6840   20.6880   34.6270 C.3       1 SUB1       -0.023
     23 N          36.3590   19.8010   38.1430 N.am      1 SUB1       -0.206
     24 C1         35.9480   18.8160   38.9570 C.ar      1 SUB1        0.110
     25 C2         35.3280   19.1230   40.1680 C.ar      1 SUB1       -0.004
     26 C3         34.9970   18.1190   41.0610 C.ar      1 SUB1       -0.044
     27 C4         35.2730   16.7710   40.7610 C.ar      1 SUB1        0.021
     28 C5         35.8830   16.4730   39.5350 C.ar      1 SUB1       -0.044
     29 C6         36.2220   17.4820   38.6430 C.ar      1 SUB1       -0.004
     30 C7         34.9850   15.6300   41.8210 C.3       1 SUB1        0.350
     31 F1         34.8420   14.3280   41.4050 F         1 SUB1       -0.244
     32 F2         33.9390   15.8470   42.6480 F         1 SUB1       -0.244
     33 F3         36.0810   15.6460   42.6020 F         1 SUB1       -0.244
     34 H71        41.7027   23.2808   38.2293 H         1 SUB1        0.189
     35 H81        40.9245   21.4856   36.2773 H         1 SUB1        0.083
     36 H111       41.4844   21.7645   39.1907 H         1 SUB1        0.047
     37 H112       42.5220   21.1469   37.8609 H         1 SUB1        0.047
     38 H131       40.3636   18.9638   36.9474 H         1 SUB1        0.056
     39 H141       42.1483   20.1835   40.6789 H         1 SUB1        0.056
     40 H151       40.1201   16.6320   37.8129 H         1 SUB1        0.060
     41 H161       41.9292   17.8618   41.5072 H         1 SUB1        0.060
     42 H171       40.9236   16.0945   40.1079 H         1 SUB1        0.056
     43 H181       39.0987   20.8878   35.4342 H         1 SUB1        0.188
     44 H191       36.5558   21.6491   36.5505 H         1 SUB1        0.081
     45 H221       37.2407   19.8658   34.1537 H         1 SUB1        0.028
     46 H222       36.9285   21.6344   34.1225 H         1 SUB1        0.028
     47 H223       35.6042   20.4959   34.5428 H         1 SUB1        0.028
     48 H231       36.5094   20.7218   38.5029 H         1 SUB1        0.249
     49 H251       35.1038   20.1553   40.4114 H         1 SUB1        0.063
     50 H261       34.5204   18.3727   42.0010 H         1 SUB1        0.080
     51 H281       36.0931   15.4407   39.2794 H         1 SUB1        0.080
     52 H291       36.6998   17.2346   37.7019 H         1 SUB1        0.063
@<TRIPOS>BOND
     1    1    3 2  
     2    1    2 1  
     3    2    6 1  
     4    2    5 1  
     5    2    4 1  
     6    9    8 1  
     7    8   11 1  
     8    8    7 1  
     9   11   12 1  
    10   12   14 ar 
    11   12   13 ar 
    12   13   15 ar 
    13   15   17 ar 
    14   16   17 ar 
    15   14   16 ar 
    16    9   10 2  
    17   20   19 1  
    18   19   22 1  
    19   19   18 1  
    20   20   21 2  
    21   23   24 1  
    22   24   29 ar 
    23   24   25 ar 
    24   25   26 ar 
    25   26   27 ar 
    26   27   30 1  
    27   28   27 ar 
    28   29   28 ar 
    29   30   33 1  
    30   30   32 1  
    31   30   31 1  
    32   18    9 am 
    33    7    1 am 
    34   20   23 am 
    35    7   34 1  
    36    8   35 1  
    37   11   36 1  
    38   11   37 1  
    39   13   38 1  
    40   14   39 1  
    41   15   40 1  
    42   16   41 1  
    43   17   42 1  
    44   18   43 1  
    45   19   44 1  
    46   22   45 1  
    47   22   46 1  
    48   22   47 1  
    49   23   48 1  
    50   25   49 1  
    51   26   50 1  
    52   28   51 1  
    53   29   52 1  
@<TRIPOS>SUBSTRUCTURE
     1 SUB1        1 GROUP

