### 
### Created by X-TOOL on Mon Oct 24 22:01:03 2005
### 

@<TRIPOS>MOLECULE
1x8r_ligand
   35    35     1     0     0
SMALL
GAST_HUCK


@<TRIPOS>ATOM
      1 C1         56.2860   12.1770   27.9070 C.2       1 SUB1       -0.035
      2 C2         55.1440   11.3880   28.2520 C.2       1 SUB1       -0.038
      3 C3         55.3160   10.1140   29.0520 C.3       1 SUB1        0.133
      4 C4         56.7150   10.0620   29.8670 C.3       1 SUB1        0.122
      5 C5         57.8740   10.2840   28.8460 C.3       1 SUB1        0.082
      6 C6         57.6980   11.7780   28.3270 C.3       1 SUB1        0.003
      7 C7         56.1070   13.4350   27.1360 C.2       1 SUB1        0.038
      8 O1         55.1400    8.8710   28.0560 O.3       1 SUB1       -0.301
      9 O2         56.7200    8.7810   30.5050 O.3       1 SUB1       -0.383
     10 O3         59.1440   10.1660   29.4990 O.3       1 SUB1       -0.412
     11 O4         55.2130   13.4830   26.3050 O.co2     1 SUB1       -0.569
     12 O5         56.8630   14.3300   27.3980 O.co2     1 SUB1       -0.569
     13 P1         53.7310    7.9660   27.8310 P.3       1 SUB1        0.208
     14 O6         52.7100    8.9450   27.2190 O.co2     1 SUB1       -0.535
     15 O7         53.3550    7.4670   29.2770 O.co2     1 SUB1       -0.535
     16 O8         54.2470    6.9310   26.8210 O.co2     1 SUB1       -0.535
     17 C8         60.0980    9.0840   29.1230 C.3       1 SUB1        0.147
     18 C9         59.5270    7.5800   29.0190 C.3       1 SUB1       -0.058
     19 C10        61.3260    9.1880   30.0280 C.2       1 SUB1        0.163
     20 O9         61.7740   10.3270   30.3930 O.co2     1 SUB1       -0.463
     21 O10        61.7160    8.0690   30.4590 O.co2     1 SUB1       -0.463
     22 P2         60.5300    9.3660   27.2920 P.3       1 SUB1        0.062
     23 O11        61.8580    8.6100   27.0230 O.co2     1 SUB1       -0.555
     24 O12        60.7630   10.8400   27.0870 O.co2     1 SUB1       -0.555
     25 O13        59.4030    8.7680   26.3880 O.co2     1 SUB1       -0.555
     26 H21        54.1499   11.7038   27.9390 H         1 SUB1        0.062
     27 H31        54.5072   10.0704   29.7963 H         1 SUB1        0.088
     28 H41        56.7548   10.8532   30.6301 H         1 SUB1        0.068
     29 H51        57.8071    9.5653   28.0160 H         1 SUB1        0.063
     30 H61        58.0129   12.4545   29.1352 H         1 SUB1        0.042
     31 H62        58.3586   11.9126   27.4578 H         1 SUB1        0.042
     32 H91        56.6421    8.1004   29.8468 H         1 SUB1        0.210
     33 H181       59.2169    7.2357   30.0167 H         1 SUB1        0.010
     34 H182       60.3125    6.9156   28.6297 H         1 SUB1        0.010
     35 H183       58.6619    7.5623   28.3398 H         1 SUB1        0.010
@<TRIPOS>BOND
     1    1    2 2  
     2    1    6 1  
     3    1    7 1  
     4    2    3 1  
     5    3    4 1  
     6    3    8 1  
     7    4    5 1  
     8    4    9 1  
     9    5    6 1  
    10    5   10 1  
    11    7   11 2  
    12    7   12 2  
    13    8   13 1  
    14   10   17 1  
    15   13   14 2  
    16   13   15 2  
    17   13   16 2  
    18   17   18 1  
    19   17   19 1  
    20   17   22 1  
    21   19   20 2  
    22   19   21 2  
    23   22   23 2  
    24   22   24 2  
    25   22   25 2  
    26    2   26 1  
    27    3   27 1  
    28    4   28 1  
    29    5   29 1  
    30    6   30 1  
    31    6   31 1  
    32    9   32 1  
    33   18   33 1  
    34   18   34 1  
    35   18   35 1  
@<TRIPOS>SUBSTRUCTURE
     1 SUB1        1 GROUP

