1gi1_ligand
  -I-interpret- 

 32 34  0  0  0  0  0  0  0  0999 V2000
   29.4210   15.0020   17.0370 C   0  0  0  0  0
   28.8930   15.8180   18.0960 C   0  0  0  0  0
   28.5980   15.3160   19.3690 C   0  0  0  0  0
   28.8270   13.9780   19.5530 C   0  0  0  0  0
   29.3210   13.1610   18.5880 C   0  0  0  0  0
   29.6350   13.6280   17.3210 C   0  0  0  0  0
   29.6800   15.5650   15.7540 C   0  3  0  0  0
   30.4010   14.8940   14.8730 N   0  0  0  0  0
   29.2050   16.7530   15.4620 N   0  0  0  0  0
   28.6260   13.2350   20.5950 N   0  0  0  0  0
   29.4480   11.9030   19.0050 N   0  0  0  0  0
   28.9910   12.0450   20.2460 C   0  0  0  0  0
   28.8670   10.9880   21.1720 C   0  0  0  0  0
   29.4510    9.7290   20.9700 C   0  0  0  0  0
   29.2910    8.6930   21.8900 C   0  0  0  0  0
   28.5360    8.8870   23.0280 C   0  0  0  0  0
   27.9540   10.1080   23.2610 C   0  0  0  0  0
   28.1100   11.1460   22.3510 C   0  0  0  0  0
   27.4980   12.3310   22.6670 O   0  0  0  0  0
   28.7440   16.8720   17.9280 H   0  0  0  0  0
   28.2120   15.9390   20.1590 H   0  0  0  0  0
   30.0230   12.9590   16.5670 H   0  0  0  0  0
   30.7940   13.9960   15.1160 H   0  0  0  0  0
   30.5680   15.1960   13.9330 H   0  0  0  0  0
   28.6790   17.2580   16.1650 H   0  0  0  0  0
   29.3480   17.2110   14.5960 H   0  0  0  0  0
   28.2820   13.4590   21.4890 H   0  0  0  0  0
   30.0470    9.5500   20.0850 H   0  0  0  0  0
   29.7560    7.7320   21.7060 H   0  0  0  0  0
   28.4160    8.0850   23.7400 H   0  0  0  0  0
   27.3710   10.2640   24.1560 H   0  0  0  0  0
   27.6682   12.9666   21.9818 H   0  0  0  0  0
  1  2  4  0  0  0
  1  6  4  0  0  0
  1  7  1  0  0  0
  2  3  4  0  0  0
  2 20  1  0  0  0
  3  4  4  0  0  0
  3 21  1  0  0  0
  4  5  4  0  0  0
  4 10  1  0  0  0
  5  6  4  0  0  0
  5 11  1  0  0  0
  6 22  1  0  0  0
  7  8  1  0  0  0
  7  9  1  0  0  0
  8 23  1  0  0  0
  8 24  1  0  0  0
  9 25  1  0  0  0
  9 26  1  0  0  0
 10 12  1  0  0  0
 10 27  1  0  0  0
 11 12  2  0  0  0
 12 13  1  0  0  0
 13 14  4  0  0  0
 13 18  4  0  0  0
 14 15  4  0  0  0
 14 28  1  0  0  0
 15 16  4  0  0  0
 15 29  1  0  0  0
 16 17  4  0  0  0
 16 30  1  0  0  0
 17 18  4  0  0  0
 17 31  1  0  0  0
 18 19  1  0  0  0
 19 32  1  0  0  0
M  END
$$$$
