### 
### Created by X-TOOL on Mon Oct 24 21:59:04 2005
### 

@<TRIPOS>MOLECULE
1gi1_ligand
   32    34     1     0     0
SMALL
GAST_HUCK


@<TRIPOS>ATOM
      1 C1         29.4210   15.0020   17.0370 C.ar      1 SUB1        0.171
      2 C2         28.8930   15.8180   18.0960 C.ar      1 SUB1       -0.020
      3 C3         28.5980   15.3160   19.3690 C.ar      1 SUB1       -0.036
      4 C4         28.8270   13.9780   19.5530 C.ar      1 SUB1        0.081
      5 C5         29.3210   13.1610   18.5880 C.ar      1 SUB1        0.034
      6 C6         29.6350   13.6280   17.3210 C.ar      1 SUB1       -0.007
      7 C7         29.6800   15.5650   15.7540 C.cat     1 SUB1        0.310
      8 N1         30.4010   14.8940   14.8730 N.pl3     1 SUB1       -0.201
      9 N2         29.2050   16.7530   15.4620 N.pl3     1 SUB1       -0.201
     10 N3         28.6260   13.2350   20.5950 N.pl3     1 SUB1       -0.251
     11 N4         29.4480   11.9030   19.0050 N.2       1 SUB1       -0.310
     12 C8         28.9910   12.0450   20.2460 C.2       1 SUB1        0.136
     13 C1'        28.8670   10.9880   21.1720 C.ar      1 SUB1        0.065
     14 C2'        29.4510    9.7290   20.9700 C.ar      1 SUB1       -0.052
     15 C3'        29.2910    8.6930   21.8900 C.ar      1 SUB1       -0.067
     16 C4'        28.5360    8.8870   23.0280 C.ar      1 SUB1       -0.066
     17 C5'        27.9540   10.1080   23.2610 C.ar      1 SUB1       -0.026
     18 C6'        28.1100   11.1460   22.3510 C.ar      1 SUB1        0.109
     19 O6'        27.4980   12.3310   22.6670 O.3       1 SUB1       -0.326
     20 H21        28.7440   16.8720   17.9280 H         1 SUB1        0.059
     21 H31        28.2120   15.9390   20.1590 H         1 SUB1        0.055
     22 H61        30.0230   12.9590   16.5670 H         1 SUB1        0.060
     23 H81        30.7940   13.9960   15.1160 H         1 SUB1        0.192
     24 H82        30.5680   15.1960   13.9330 H         1 SUB1        0.192
     25 H91        28.6790   17.2580   16.1650 H         1 SUB1        0.192
     26 H92        29.3480   17.2110   14.5960 H         1 SUB1        0.192
     27 H101       28.2820   13.4590   21.4890 H         1 SUB1        0.230
     28 H141       30.0470    9.5500   20.0850 H         1 SUB1        0.064
     29 H151       29.7560    7.7320   21.7060 H         1 SUB1        0.054
     30 H161       28.4160    8.0850   23.7400 H         1 SUB1        0.062
     31 H171       27.3710   10.2640   24.1560 H         1 SUB1        0.055
     32 H191       27.6682   12.9666   21.9818 H         1 SUB1        0.252
@<TRIPOS>BOND
     1    1    2 ar 
     2    1    6 ar 
     3    1    7 1  
     4    2    3 ar 
     5    2   20 1  
     6    3    4 ar 
     7    3   21 1  
     8    4    5 ar 
     9    4   10 1  
    10    5    6 ar 
    11    5   11 1  
    12    6   22 1  
    13    7    8 1  
    14    7    9 1  
    15    8   23 1  
    16    8   24 1  
    17    9   25 1  
    18    9   26 1  
    19   10   12 1  
    20   10   27 1  
    21   11   12 2  
    22   12   13 1  
    23   13   14 ar 
    24   13   18 ar 
    25   14   15 ar 
    26   14   28 1  
    27   15   16 ar 
    28   15   29 1  
    29   16   17 ar 
    30   16   30 1  
    31   17   18 ar 
    32   17   31 1  
    33   18   19 1  
    34   19   32 1  
@<TRIPOS>SUBSTRUCTURE
     1 SUB1        1 GROUP

