### 
### Created by X-TOOL on Mon Oct 24 22:06:04 2005
### 

@<TRIPOS>MOLECULE
1oko_ligand
   24    24     1     0     0
SMALL
GAST_HUCK


@<TRIPOS>ATOM
      1 C1         22.0980   16.8310   45.2590 C.3       1 SUB1        0.185
      2 C2         22.7590   15.4870   45.0500 C.3       1 SUB1        0.134
      3 C3         24.0340   15.6740   44.2630 C.3       1 SUB1        0.114
      4 C4         23.6870   16.3310   42.9410 C.3       1 SUB1        0.112
      5 C5         22.8490   17.5710   43.1540 C.3       1 SUB1        0.113
      6 C6         22.2680   18.0340   41.8290 C.3       1 SUB1        0.073
      7 O1         20.9250   16.6420   46.0140 O.3       1 SUB1       -0.365
      8 O2         23.0760   14.8160   46.2410 O.3       1 SUB1       -0.384
      9 O3         24.5430   14.3910   44.0140 O.3       1 SUB1       -0.386
     10 O4         22.9930   15.4110   42.1280 O.3       1 SUB1       -0.387
     11 O5         21.7270   17.3070   43.9640 O.3       1 SUB1       -0.341
     12 O6         21.7260   19.3220   42.0160 O.3       1 SUB1       -0.392
     13 H11        22.7770   17.5431   45.7507 H         1 SUB1        0.094
     14 H21        22.0681   14.8454   44.4835 H         1 SUB1        0.067
     15 H31        24.7683   16.2733   44.8212 H         1 SUB1        0.065
     16 H41        24.6164   16.6122   42.4243 H         1 SUB1        0.065
     17 H51        23.4614   18.3594   43.6159 H         1 SUB1        0.065
     18 H61        23.0573   18.0804   41.0643 H         1 SUB1        0.058
     19 H62        21.4710   17.3490   41.5043 H         1 SUB1        0.058
     20 H71        20.4624   17.4682   46.0905 H         1 SUB1        0.213
     21 H81        23.4608   13.9722   46.0350 H         1 SUB1        0.210
     22 H91        23.8876   13.8740   43.5605 H         1 SUB1        0.210
     23 H101       23.5279   14.6363   42.0006 H         1 SUB1        0.210
     24 H121       21.0455   19.2849   42.6778 H         1 SUB1        0.209
@<TRIPOS>BOND
     1    1    2 1  
     2    1    7 1  
     3    1   11 1  
     4    2    3 1  
     5    2    8 1  
     6    3    4 1  
     7    3    9 1  
     8    4    5 1  
     9    4   10 1  
    10    5    6 1  
    11    5   11 1  
    12    6   12 1  
    13    1   13 1  
    14    2   14 1  
    15    3   15 1  
    16    4   16 1  
    17    5   17 1  
    18    6   18 1  
    19    6   19 1  
    20    7   20 1  
    21    8   21 1  
    22    9   22 1  
    23   10   23 1  
    24   12   24 1  
@<TRIPOS>SUBSTRUCTURE
     1 SUB1        1 GROUP

