1oko_ligand
  -I-interpret- 

 24 24  0  0  0  0  0  0  0  0999 V2000
   22.0980   16.8310   45.2590 C   0  0  0  0  0
   22.7590   15.4870   45.0500 C   0  0  0  0  0
   24.0340   15.6740   44.2630 C   0  0  0  0  0
   23.6870   16.3310   42.9410 C   0  0  0  0  0
   22.8490   17.5710   43.1540 C   0  0  0  0  0
   22.2680   18.0340   41.8290 C   0  0  0  0  0
   20.9250   16.6420   46.0140 O   0  0  0  0  0
   23.0760   14.8160   46.2410 O   0  0  0  0  0
   24.5430   14.3910   44.0140 O   0  0  0  0  0
   22.9930   15.4110   42.1280 O   0  0  0  0  0
   21.7270   17.3070   43.9640 O   0  0  0  0  0
   21.7260   19.3220   42.0160 O   0  0  0  0  0
   22.7770   17.5431   45.7507 H   0  0  0  0  0
   22.0681   14.8454   44.4835 H   0  0  0  0  0
   24.7683   16.2733   44.8212 H   0  0  0  0  0
   24.6164   16.6122   42.4243 H   0  0  0  0  0
   23.4614   18.3594   43.6159 H   0  0  0  0  0
   23.0573   18.0804   41.0643 H   0  0  0  0  0
   21.4710   17.3490   41.5043 H   0  0  0  0  0
   20.4624   17.4682   46.0905 H   0  0  0  0  0
   23.4608   13.9722   46.0350 H   0  0  0  0  0
   23.8876   13.8740   43.5605 H   0  0  0  0  0
   23.5279   14.6363   42.0006 H   0  0  0  0  0
   21.0455   19.2849   42.6778 H   0  0  0  0  0
  1  2  1  0  0  0
  1  7  1  0  0  0
  1 11  1  0  0  0
  2  3  1  0  0  0
  2  8  1  0  0  0
  3  4  1  0  0  0
  3  9  1  0  0  0
  4  5  1  0  0  0
  4 10  1  0  0  0
  5  6  1  0  0  0
  5 11  1  0  0  0
  6 12  1  0  0  0
  1 13  1  0  0  0
  2 14  1  0  0  0
  3 15  1  0  0  0
  4 16  1  0  0  0
  5 17  1  0  0  0
  6 18  1  0  0  0
  6 19  1  0  0  0
  7 20  1  0  0  0
  8 21  1  0  0  0
  9 22  1  0  0  0
 10 23  1  0  0  0
 12 24  1  0  0  0
M  END
$$$$
