1nu3_ligand
  -I-interpret- 

 27 26  0  0  0  0  0  0  0  0999 V2000
   15.7670   21.0810    5.8720 C   0  0  0  0  0
   16.5030   21.7220    6.9990 C   0  0  0  0  0
   15.7100   21.9580    8.2650 C   0  0  0  0  0
   16.0740   23.2290    9.0290 C   0  0  0  0  0
   17.5730   23.4160    9.1660 C   0  0  0  0  0
   17.8810   24.6710    9.9690 C   0  0  0  0  0
   19.2900   25.2080    9.8090 C   0  0  0  0  0
   15.3560   23.3260   10.3780 C   0  0  0  0  0
   15.7980   22.7500   11.5260 N   0  0  0  0  0
   14.3600   24.0210   10.4190 O   0  0  0  0  0
   16.4501   20.9659    5.0176 H   0  0  0  0  0
   15.4047   20.0882    6.1771 H   0  0  0  0  0
   14.9191   21.7132    5.5700 H   0  0  0  0  0
   17.3535   21.0767    7.2639 H   0  0  0  0  0
   16.8679   22.7016    6.6568 H   0  0  0  0  0
   14.6445   22.0257    8.0003 H   0  0  0  0  0
   15.8749   21.1071    8.9423 H   0  0  0  0  0
   15.7016   24.0745    8.4321 H   0  0  0  0  0
   18.0064   22.5499    9.6874 H   0  0  0  0  0
   18.0246   23.5175    8.1681 H   0  0  0  0  0
   17.1878   25.4644    9.6531 H   0  0  0  0  0
   17.7328   24.4462   11.0355 H   0  0  0  0  0
   19.4022   26.1097   10.4290 H   0  0  0  0  0
   20.0188   24.4533   10.1394 H   0  0  0  0  0
   19.4738   25.4716    8.7570 H   0  0  0  0  0
   15.2755   22.8560   12.3720 H   0  0  0  0  0
   16.6460   22.2199   11.5252 H   0  0  0  0  0
  1  2  1  0  0  0
  2  3  1  0  0  0
  3  4  1  0  0  0
  4  5  1  0  0  0
  4  8  1  0  0  0
  5  6  1  0  0  0
  6  7  1  0  0  0
  8  9  1  0  0  0
  8 10  2  0  0  0
  1 11  1  0  0  0
  1 12  1  0  0  0
  1 13  1  0  0  0
  2 14  1  0  0  0
  2 15  1  0  0  0
  3 16  1  0  0  0
  3 17  1  0  0  0
  4 18  1  0  0  0
  5 19  1  0  0  0
  5 20  1  0  0  0
  6 21  1  0  0  0
  6 22  1  0  0  0
  7 23  1  0  0  0
  7 24  1  0  0  0
  7 25  1  0  0  0
  9 26  1  0  0  0
  9 27  1  0  0  0
M  END
$$$$
