### 
### Created by X-TOOL on Mon Oct 24 22:36:20 2005
### 

@<TRIPOS>MOLECULE
1nu3_ligand
   27    26     1     0     0
SMALL
GAST_HUCK


@<TRIPOS>ATOM
      1 C5         15.7670   21.0810    5.8720 C.3       1 SUB1       -0.065
      2 C4         16.5030   21.7220    6.9990 C.3       1 SUB1       -0.054
      3 C3         15.7100   21.9580    8.2650 C.3       1 SUB1       -0.034
      4 C2         16.0740   23.2290    9.0290 C.3       1 SUB1        0.048
      5 C3A        17.5730   23.4160    9.1660 C.3       1 SUB1       -0.034
      6 C4A        17.8810   24.6710    9.9690 C.3       1 SUB1       -0.054
      7 C5A        19.2900   25.2080    9.8090 C.3       1 SUB1       -0.065
      8 C1         15.3560   23.3260   10.3780 C.2       1 SUB1        0.177
      9 N          15.7980   22.7500   11.5260 N.am      1 SUB1       -0.301
     10 O          14.3600   24.0210   10.4190 O.2       1 SUB1       -0.397
     11 H11        16.4501   20.9659    5.0176 H         1 SUB1        0.023
     12 H12        15.4047   20.0882    6.1771 H         1 SUB1        0.023
     13 H13        14.9191   21.7132    5.5700 H         1 SUB1        0.023
     14 H21        17.3535   21.0767    7.2639 H         1 SUB1        0.026
     15 H22        16.8679   22.7016    6.6568 H         1 SUB1        0.026
     16 H31        14.6445   22.0257    8.0003 H         1 SUB1        0.029
     17 H32        15.8749   21.1071    8.9423 H         1 SUB1        0.029
     18 H41        15.7016   24.0745    8.4321 H         1 SUB1        0.054
     19 H51        18.0064   22.5499    9.6874 H         1 SUB1        0.029
     20 H52        18.0246   23.5175    8.1681 H         1 SUB1        0.029
     21 H61        17.1878   25.4644    9.6531 H         1 SUB1        0.026
     22 H62        17.7328   24.4462   11.0355 H         1 SUB1        0.026
     23 H71        19.4022   26.1097   10.4290 H         1 SUB1        0.023
     24 H72        20.0188   24.4533   10.1394 H         1 SUB1        0.023
     25 H73        19.4738   25.4716    8.7570 H         1 SUB1        0.023
     26 H91        15.2755   22.8560   12.3720 H         1 SUB1        0.181
     27 H92        16.6460   22.2199   11.5252 H         1 SUB1        0.181
@<TRIPOS>BOND
     1    1    2 1  
     2    2    3 1  
     3    3    4 1  
     4    4    5 1  
     5    4    8 1  
     6    5    6 1  
     7    6    7 1  
     8    8    9 am 
     9    8   10 2  
    10    1   11 1  
    11    1   12 1  
    12    1   13 1  
    13    2   14 1  
    14    2   15 1  
    15    3   16 1  
    16    3   17 1  
    17    4   18 1  
    18    5   19 1  
    19    5   20 1  
    20    6   21 1  
    21    6   22 1  
    22    7   23 1  
    23    7   24 1  
    24    7   25 1  
    25    9   26 1  
    26    9   27 1  
@<TRIPOS>SUBSTRUCTURE
     1 SUB1        1 GROUP

