### 
### Created by X-TOOL on Mon Oct 24 23:04:01 2005
### 

@<TRIPOS>MOLECULE
1b0h_ligand
   73    74     1     0     0
SMALL
GAST_HUCK


@<TRIPOS>ATOM
      1 N           6.9090   16.7300   15.2530 N.4       1 SUB1        0.238
      2 CA          6.4360   18.0200   14.6830 C.3       1 SUB1        0.065
      3 C           5.1700   18.4740   15.4120 C.2       1 SUB1        0.227
      4 O           4.4670   17.5800   15.8650 O.2       1 SUB1       -0.391
      5 CB          6.2720   17.9240   13.1610 C.3       1 SUB1        0.008
      6 CG          5.3730   16.7960   12.6860 C.3       1 SUB1       -0.041
      7 CD          5.3290   16.6920   11.1580 C.3       1 SUB1       -0.012
      8 CE          6.6160   16.0710   10.5960 C.3       1 SUB1       -0.035
      9 NZ          6.6840   14.6270   10.9920 N.4       1 SUB1        0.219
     10 N           4.9980   19.7850   15.6180 N.am      1 SUB1       -0.259
     11 CA          3.7820   20.2150   16.3270 C.3       1 SUB1        0.141
     12 C           2.5590   20.1490   15.4140 C.2       1 SUB1        0.207
     13 O           2.5900   20.4070   14.2000 O.2       1 SUB1       -0.394
     14 CB          3.9240   21.6660   16.8420 C.3       1 SUB1        0.024
     15 CG1         5.0970   21.7900   17.8040 C.ar      1 SUB1       -0.028
     16 CD1         6.1730   22.5540   17.3290 C.ar      1 SUB1       -0.060
     17 CE1         7.3110   22.7060   18.1170 C.ar      1 SUB1       -0.071
     18 CD2         5.1750   21.2140   19.0800 C.ar      1 SUB1       -0.012
     19 CE2         6.2950   21.3250   19.9340 C.ar      1 SUB1       -0.024
     20 CZ1         7.3670   22.1270   19.3670 C.ar      1 SUB1       -0.063
     21 CG2         4.1150   20.4510   19.5690 C.ar      1 SUB1       -0.055
     22 CD3         4.0960   19.8320   20.7520 C.ar      1 SUB1       -0.062
     23 CE3         5.2370   19.9180   21.5770 C.ar      1 SUB1       -0.063
     24 CZ2         6.3230   20.6880   21.1870 C.ar      1 SUB1       -0.057
     25 N           1.4090   19.7920   15.9990 N.am      1 SUB1       -0.268
     26 CA          0.1730   19.7670   15.2560 C.3       1 SUB1        0.081
     27 C          -0.8960   20.5730   16.0140 C.2       1 SUB1        0.053
     28 O          -1.8600   20.9460   15.3390 O.co2     1 SUB1       -0.564
     29 CB         -0.4140   18.3430   15.1810 C.3       1 SUB1       -0.018
     30 CG         -1.3790   18.2590   13.9930 C.3       1 SUB1       -0.043
     31 CD         -2.0790   16.9220   14.0350 C.3       1 SUB1       -0.012
     32 CE         -3.4240   17.0270   13.3120 C.3       1 SUB1       -0.035
     33 NZ         -3.1520   16.8360   11.8600 N.4       1 SUB1        0.219
     34 OXT        -0.8180   20.7360   17.2390 O.co2     1 SUB1       -0.564
     35 H11         6.2856   16.4287   15.9856 H         1 SUB1        0.201
     36 H21         7.2020   18.7837   14.8827 H         1 SUB1        0.110
     37 H51         5.8399   18.8676   12.7966 H         1 SUB1        0.035
     38 H52         7.2674   17.7926   12.7116 H         1 SUB1        0.035
     39 H61         5.7503   15.8425   13.0840 H         1 SUB1        0.027
     40 H62         4.3550   16.9619   13.0682 H         1 SUB1        0.027
     41 H71         4.4805   16.0581   10.8612 H         1 SUB1        0.032
     42 H72         5.1890   17.6955   10.7297 H         1 SUB1        0.032
     43 H81         6.6158   16.1401    9.4982 H         1 SUB1        0.081
     44 H82         7.4921   16.6104   10.9852 H         1 SUB1        0.081
     45 H12         7.8417   16.8619   15.6440 H         1 SUB1        0.201
     46 H251        1.4068   19.5336   16.9857 H         1 SUB1        0.190
     47 H91         7.5321   14.2254   10.6239 H         1 SUB1        0.199
     48 H92         6.6916   14.5461   11.9967 H         1 SUB1        0.199
     49 H93         5.8820   14.1337   10.6323 H         1 SUB1        0.199
     50 H261        0.3284   20.1850   14.2505 H         1 SUB1        0.078
     51 H291        0.3949   17.6116   15.0369 H         1 SUB1        0.032
     52 H292       -0.9437   18.1065   16.1156 H         1 SUB1        0.032
     53 H301       -2.1294   19.0605   14.0596 H         1 SUB1        0.027
     54 H302       -0.8253   18.3691   13.0489 H         1 SUB1        0.027
     55 H311       -1.4628   16.1624   13.5318 H         1 SUB1        0.032
     56 H312       -2.2362   16.6160   15.0798 H         1 SUB1        0.032
     57 H321       -4.1113   16.2433   13.6633 H         1 SUB1        0.081
     58 H322       -3.8834   18.0096   13.4948 H         1 SUB1        0.081
     59 H331       -4.0200   16.9032   11.3519 H         1 SUB1        0.199
     60 H332       -2.5229   17.5516   11.5311 H         1 SUB1        0.199
     61 H333       -2.7283   15.9346   11.7052 H         1 SUB1        0.199
     62 H101        5.6734   20.4506   15.3007 H         1 SUB1        0.189
     63 H111        3.6254   19.5558   17.1935 H         1 SUB1        0.083
     64 H141        4.0972   22.3414   15.9913 H         1 SUB1        0.049
     65 H142        3.0054   21.9582   17.3719 H         1 SUB1        0.049
     66 H161        6.1190   23.0237   16.3535 H         1 SUB1        0.053
     67 H171        8.1532   23.2798   17.7475 H         1 SUB1        0.060
     68 H201        8.2612   22.2783   19.9608 H         1 SUB1        0.054
     69 H211        3.2380   20.3528   18.9395 H         1 SUB1        0.063
     70 H221        3.2225   19.2753   21.0716 H         1 SUB1        0.060
     71 H231        5.2653   19.3810   22.5182 H         1 SUB1        0.062
     72 H241        7.1817   20.7971   21.8396 H         1 SUB1        0.061
     73 H13         6.9309   16.0239   14.5340 H         1 SUB1        0.201
@<TRIPOS>BOND
     1    2    1 1  
     2    2    5 1  
     3    3    2 1  
     4    3    4 2  
     5    5    6 1  
     6    6    7 1  
     7    7    8 1  
     8    8    9 1  
     9   25   26 1  
    10   26   29 1  
    11   26   27 1  
    12   27   28 2  
    13   27   34 2  
    14   29   30 1  
    15   30   31 1  
    16   31   32 1  
    17   32   33 1  
    18   11   10 1  
    19   12   11 1  
    20   11   14 1  
    21   12   13 2  
    22   14   15 1  
    23   15   16 ar 
    24   15   18 ar 
    25   16   17 ar 
    26   17   20 ar 
    27   18   19 ar 
    28   18   21 ar 
    29   19   20 ar 
    30   19   24 ar 
    31   21   22 ar 
    32   22   23 ar 
    33   24   23 ar 
    34   10    3 am 
    35   12   25 am 
    36    1   45 1  
    37   25   46 1  
    38    1   35 1  
    39    2   36 1  
    40    5   37 1  
    41    5   38 1  
    42    6   39 1  
    43    6   40 1  
    44    7   41 1  
    45    7   42 1  
    46    8   43 1  
    47    8   44 1  
    48    9   47 1  
    49    9   48 1  
    50    9   49 1  
    51   26   50 1  
    52   29   51 1  
    53   29   52 1  
    54   30   53 1  
    55   30   54 1  
    56   31   55 1  
    57   31   56 1  
    58   32   57 1  
    59   32   58 1  
    60   33   59 1  
    61   33   60 1  
    62   33   61 1  
    63   10   62 1  
    64   11   63 1  
    65   14   64 1  
    66   14   65 1  
    67   16   66 1  
    68   17   67 1  
    69   20   68 1  
    70   21   69 1  
    71   22   70 1  
    72   23   71 1  
    73   24   72 1  
    74    1   73 1  
@<TRIPOS>SUBSTRUCTURE
     1 SUB1        1 GROUP

