1b0h_ligand
  -I-interpret- 

 73 74  0  0  0  0  0  0  0  0999 V2000
    6.9090   16.7300   15.2530 N   0  3  0  0  0
    6.4360   18.0200   14.6830 C   0  0  0  0  0
    5.1700   18.4740   15.4120 C   0  0  0  0  0
    4.4670   17.5800   15.8650 O   0  0  0  0  0
    6.2720   17.9240   13.1610 C   0  0  0  0  0
    5.3730   16.7960   12.6860 C   0  0  0  0  0
    5.3290   16.6920   11.1580 C   0  0  0  0  0
    6.6160   16.0710   10.5960 C   0  0  0  0  0
    6.6840   14.6270   10.9920 N   0  3  0  0  0
    4.9980   19.7850   15.6180 N   0  0  0  0  0
    3.7820   20.2150   16.3270 C   0  0  0  0  0
    2.5590   20.1490   15.4140 C   0  0  0  0  0
    2.5900   20.4070   14.2000 O   0  0  0  0  0
    3.9240   21.6660   16.8420 C   0  0  0  0  0
    5.0970   21.7900   17.8040 C   0  0  0  0  0
    6.1730   22.5540   17.3290 C   0  0  0  0  0
    7.3110   22.7060   18.1170 C   0  0  0  0  0
    5.1750   21.2140   19.0800 C   0  0  0  0  0
    6.2950   21.3250   19.9340 C   0  0  0  0  0
    7.3670   22.1270   19.3670 C   0  0  0  0  0
    4.1150   20.4510   19.5690 C   0  0  0  0  0
    4.0960   19.8320   20.7520 C   0  0  0  0  0
    5.2370   19.9180   21.5770 C   0  0  0  0  0
    6.3230   20.6880   21.1870 C   0  0  0  0  0
    1.4090   19.7920   15.9990 N   0  0  0  0  0
    0.1730   19.7670   15.2560 C   0  0  0  0  0
   -0.8960   20.5730   16.0140 C   0  0  0  0  0
   -1.8600   20.9460   15.3390 O   0  0  0  0  0
   -0.4140   18.3430   15.1810 C   0  0  0  0  0
   -1.3790   18.2590   13.9930 C   0  0  0  0  0
   -2.0790   16.9220   14.0350 C   0  0  0  0  0
   -3.4240   17.0270   13.3120 C   0  0  0  0  0
   -3.1520   16.8360   11.8600 N   0  3  0  0  0
   -0.8180   20.7360   17.2390 O   0  5  0  0  0
    6.2856   16.4287   15.9856 H   0  0  0  0  0
    7.2020   18.7837   14.8827 H   0  0  0  0  0
    5.8399   18.8676   12.7966 H   0  0  0  0  0
    7.2674   17.7926   12.7116 H   0  0  0  0  0
    5.7503   15.8425   13.0840 H   0  0  0  0  0
    4.3550   16.9619   13.0682 H   0  0  0  0  0
    4.4805   16.0581   10.8612 H   0  0  0  0  0
    5.1890   17.6955   10.7297 H   0  0  0  0  0
    6.6158   16.1401    9.4982 H   0  0  0  0  0
    7.4921   16.6104   10.9852 H   0  0  0  0  0
    7.8417   16.8619   15.6440 H   0  0  0  0  0
    1.4068   19.5336   16.9857 H   0  0  0  0  0
    7.5321   14.2254   10.6239 H   0  0  0  0  0
    6.6916   14.5461   11.9967 H   0  0  0  0  0
    5.8820   14.1337   10.6323 H   0  0  0  0  0
    0.3284   20.1850   14.2505 H   0  0  0  0  0
    0.3949   17.6116   15.0369 H   0  0  0  0  0
   -0.9437   18.1065   16.1156 H   0  0  0  0  0
   -2.1294   19.0605   14.0596 H   0  0  0  0  0
   -0.8253   18.3691   13.0489 H   0  0  0  0  0
   -1.4628   16.1624   13.5318 H   0  0  0  0  0
   -2.2362   16.6160   15.0798 H   0  0  0  0  0
   -4.1113   16.2433   13.6633 H   0  0  0  0  0
   -3.8834   18.0096   13.4948 H   0  0  0  0  0
   -4.0200   16.9032   11.3519 H   0  0  0  0  0
   -2.5229   17.5516   11.5311 H   0  0  0  0  0
   -2.7283   15.9346   11.7052 H   0  0  0  0  0
    5.6734   20.4506   15.3007 H   0  0  0  0  0
    3.6254   19.5558   17.1935 H   0  0  0  0  0
    4.0972   22.3414   15.9913 H   0  0  0  0  0
    3.0054   21.9582   17.3719 H   0  0  0  0  0
    6.1190   23.0237   16.3535 H   0  0  0  0  0
    8.1532   23.2798   17.7475 H   0  0  0  0  0
    8.2612   22.2783   19.9608 H   0  0  0  0  0
    3.2380   20.3528   18.9395 H   0  0  0  0  0
    3.2225   19.2753   21.0716 H   0  0  0  0  0
    5.2653   19.3810   22.5182 H   0  0  0  0  0
    7.1817   20.7971   21.8396 H   0  0  0  0  0
    6.9309   16.0239   14.5340 H   0  0  0  0  0
  2  1  1  0  0  0
  2  5  1  0  0  0
  3  2  1  0  0  0
  3  4  2  0  0  0
  5  6  1  0  0  0
  6  7  1  0  0  0
  7  8  1  0  0  0
  8  9  1  0  0  0
 25 26  1  0  0  0
 26 29  1  0  0  0
 26 27  1  0  0  0
 27 28  2  0  0  0
 27 34  1  0  0  0
 29 30  1  0  0  0
 30 31  1  0  0  0
 31 32  1  0  0  0
 32 33  1  0  0  0
 11 10  1  0  0  0
 12 11  1  0  0  0
 11 14  1  0  0  0
 12 13  2  0  0  0
 14 15  1  0  0  0
 15 16  4  0  0  0
 15 18  4  0  0  0
 16 17  4  0  0  0
 17 20  4  0  0  0
 18 19  4  0  0  0
 18 21  4  0  0  0
 19 20  4  0  0  0
 19 24  4  0  0  0
 21 22  4  0  0  0
 22 23  4  0  0  0
 24 23  4  0  0  0
 10  3  1  0  0  0
 12 25  1  0  0  0
  1 45  1  0  0  0
 25 46  1  0  0  0
  1 35  1  0  0  0
  2 36  1  0  0  0
  5 37  1  0  0  0
  5 38  1  0  0  0
  6 39  1  0  0  0
  6 40  1  0  0  0
  7 41  1  0  0  0
  7 42  1  0  0  0
  8 43  1  0  0  0
  8 44  1  0  0  0
  9 47  1  0  0  0
  9 48  1  0  0  0
  9 49  1  0  0  0
 26 50  1  0  0  0
 29 51  1  0  0  0
 29 52  1  0  0  0
 30 53  1  0  0  0
 30 54  1  0  0  0
 31 55  1  0  0  0
 31 56  1  0  0  0
 32 57  1  0  0  0
 32 58  1  0  0  0
 33 59  1  0  0  0
 33 60  1  0  0  0
 33 61  1  0  0  0
 10 62  1  0  0  0
 11 63  1  0  0  0
 14 64  1  0  0  0
 14 65  1  0  0  0
 16 66  1  0  0  0
 17 67  1  0  0  0
 20 68  1  0  0  0
 21 69  1  0  0  0
 22 70  1  0  0  0
 23 71  1  0  0  0
 24 72  1  0  0  0
  1 73  1  0  0  0
M  END
$$$$
