1ikt_ligand
  -I-interpret- 

 61 61  0  0  0  0  0  0  0  0999 V2000
   29.2452   27.7810   15.8225 H   0  0  0  0  0
   28.6739   29.4441   16.1890 H   0  0  0  0  0
   29.8795   28.4116   19.3659 H   0  0  0  0  0
   28.8814   27.4473   18.2255 H   0  0  0  0  0
   28.5307   29.1917   18.4722 H   0  0  0  0  0
   32.0252   27.8591   16.3805 H   0  0  0  0  0
   30.7866   26.7055   16.9816 H   0  0  0  0  0
   31.8480   27.5702   18.1445 H   0  0  0  0  0
   31.7592   30.3507   16.9186 H   0  0  0  0  0
   31.6088   29.8490   18.6368 H   0  0  0  0  0
   29.5530   28.8300   15.9440 C   0  0  0  0  0
   30.2890   28.7900   17.2730 C   0  0  0  0  0
   29.3270   28.4350   18.4150 C   0  0  0  0  0
   31.3090   27.6510   17.1890 C   0  0  0  0  0
   31.0540   30.0570   17.7100 C   0  0  0  0  0
   29.8430   29.2540   14.4720 C   0  0  0  0  0
   30.4160   30.6950   14.3880 C   0  0  0  0  0
   30.7990   28.2770   13.7980 C   0  0  0  0  0
   28.5370   29.2090   13.6820 C   0  0  0  0  0
   29.5790   31.8340   14.6420 C   0  0  0  0  0
   30.1000   33.1770   14.5860 C   0  0  0  0  0
   31.4620   33.3240   14.2710 C   0  0  0  0  0
   32.3410   32.2670   14.0150 C   0  0  0  0  0
   31.7970   30.9260   14.0760 C   0  0  0  0  0
   31.9870   34.6660   14.1200 O   0  0  0  0  0
   31.7630   35.5090   15.2590 C   0  0  0  0  0
   31.5560   36.9420   14.8090 C   0  0  0  0  0
   32.8010   37.6480   14.7910 O   0  0  0  0  0
   32.6720   38.9270   14.1580 C   0  0  0  0  0
   33.6100   39.9300   14.8010 C   0  0  0  0  0
   32.9430   40.6310   15.8510 O   0  0  0  0  0
   33.5260   41.9120   16.1060 C   0  0  0  0  0
   32.8960   42.5390   17.3490 C   0  0  0  0  0
   33.5580   42.0700   18.5240 O   0  0  0  0  0
   33.3050   42.9050   19.6530 C   0  0  0  0  0
   30.3393   30.8744   17.8861 H   0  0  0  0  0
   30.9848   28.6007   12.7633 H   0  0  0  0  0
   30.3527   27.2716   13.7931 H   0  0  0  0  0
   31.7495   28.2535   14.3511 H   0  0  0  0  0
   27.8115   29.9018   14.1332 H   0  0  0  0  0
   28.1304   28.1871   13.7036 H   0  0  0  0  0
   28.7282   29.5057   12.6402 H   0  0  0  0  0
   28.5329   31.6806   14.8810 H   0  0  0  0  0
   29.4684   34.0367   14.7786 H   0  0  0  0  0
   33.3846   32.4436   13.7810 H   0  0  0  0  0
   32.4464   30.0800   13.8820 H   0  0  0  0  0
   32.6357   35.4591   15.9267 H   0  0  0  0  0
   30.8686   35.1634   15.7980 H   0  0  0  0  0
   30.8660   37.4432   15.5037 H   0  0  0  0  0
   31.1240   36.9447   13.7974 H   0  0  0  0  0
   31.6357   39.2807   14.2626 H   0  0  0  0  0
   32.9205   38.8304   13.0908 H   0  0  0  0  0
   33.9471   40.6503   14.0411 H   0  0  0  0  0
   34.4801   39.3994   15.2148 H   0  0  0  0  0
   33.3537   42.5687   15.2405 H   0  0  0  0  0
   34.6077   41.7937   16.2670 H   0  0  0  0  0
   31.8322   42.2633   17.3962 H   0  0  0  0  0
   32.9890   43.6335   17.2914 H   0  0  0  0  0
   33.8338   42.5050   20.5307 H   0  0  0  0  0
   32.2242   42.9297   19.8560 H   0  0  0  0  0
   33.6620   43.9240   19.4428 H   0  0  0  0  0
 11  1  1  0  0  0
 11  2  1  0  0  0
 13  3  1  0  0  0
 13  4  1  0  0  0
 13  5  1  0  0  0
 14  6  1  0  0  0
 14  7  1  0  0  0
 14  8  1  0  0  0
 11 16  1  0  0  0
 12 11  1  0  0  0
 12 15  1  0  0  0
 12 14  1  0  0  0
 12 13  1  0  0  0
 16 19  1  0  0  0
 16 18  1  0  0  0
 16 17  1  0  0  0
 17 24  4  0  0  0
 17 20  4  0  0  0
 20 21  4  0  0  0
 21 22  4  0  0  0
 22 25  1  0  0  0
 22 23  4  0  0  0
 23 24  4  0  0  0
 25 26  1  0  0  0
 26 27  1  0  0  0
 27 28  1  0  0  0
 28 29  1  0  0  0
 29 30  1  0  0  0
 30 31  1  0  0  0
 31 32  1  0  0  0
 32 33  1  0  0  0
 33 34  1  0  0  0
 34 35  1  0  0  0
 15  9  1  0  0  0
 15 10  1  0  0  0
 15 36  1  0  0  0
 18 37  1  0  0  0
 18 38  1  0  0  0
 18 39  1  0  0  0
 19 40  1  0  0  0
 19 41  1  0  0  0
 19 42  1  0  0  0
 20 43  1  0  0  0
 21 44  1  0  0  0
 23 45  1  0  0  0
 24 46  1  0  0  0
 26 47  1  0  0  0
 26 48  1  0  0  0
 27 49  1  0  0  0
 27 50  1  0  0  0
 29 51  1  0  0  0
 29 52  1  0  0  0
 30 53  1  0  0  0
 30 54  1  0  0  0
 32 55  1  0  0  0
 32 56  1  0  0  0
 33 57  1  0  0  0
 33 58  1  0  0  0
 35 59  1  0  0  0
 35 60  1  0  0  0
 35 61  1  0  0  0
M  END
$$$$
