### 
### Created by X-TOOL on Mon Oct 24 22:35:47 2005
### 

@<TRIPOS>MOLECULE
1ikt_ligand
   61    61     1     0     0
SMALL
GAST_HUCK


@<TRIPOS>ATOM
      1 H111       29.2452   27.7810   15.8225 H         1 SUB1        0.016
      2 H112       28.6739   29.4441   16.1890 H         1 SUB1        0.016
      3 H131       29.8795   28.4116   19.3659 H         1 SUB1        0.023
      4 H132       28.8814   27.4473   18.2255 H         1 SUB1        0.023
      5 H133       28.5307   29.1917   18.4722 H         1 SUB1        0.023
      6 H141       32.0252   27.8591   16.3805 H         1 SUB1        0.023
      7 H142       30.7866   26.7055   16.9816 H         1 SUB1        0.023
      8 H143       31.8480   27.5702   18.1445 H         1 SUB1        0.023
      9 H151       31.7592   30.3507   16.9186 H         1 SUB1        0.023
     10 H152       31.6088   29.8490   18.6368 H         1 SUB1        0.023
     11 C5         29.5530   28.8300   15.9440 C.3       1 SUB1       -0.073
     12 C1         30.2890   28.7900   17.2730 C.3       1 SUB1       -0.046
     13 C3         29.3270   28.4350   18.4150 C.3       1 SUB1       -0.061
     14 C4         31.3090   27.6510   17.1890 C.3       1 SUB1       -0.061
     15 C2         31.0540   30.0570   17.7100 C.3       1 SUB1       -0.061
     16 C6         29.8430   29.2540   14.4720 C.3       1 SUB1       -0.054
     17 C9         30.4160   30.6950   14.3880 C.ar      1 SUB1       -0.062
     18 C8         30.7990   28.2770   13.7980 C.3       1 SUB1       -0.090
     19 C7         28.5370   29.2090   13.6820 C.3       1 SUB1       -0.090
     20 C10        29.5790   31.8340   14.6420 C.ar      1 SUB1       -0.046
     21 C11        30.1000   33.1770   14.5860 C.ar      1 SUB1        0.001
     22 C12        31.4620   33.3240   14.2710 C.ar      1 SUB1        0.129
     23 C13        32.3410   32.2670   14.0150 C.ar      1 SUB1        0.001
     24 C14        31.7970   30.9260   14.0760 C.ar      1 SUB1       -0.046
     25 O15        31.9870   34.6660   14.1200 O.3       1 SUB1       -0.291
     26 C16        31.7630   35.5090   15.2590 C.3       1 SUB1        0.103
     27 C17        31.5560   36.9420   14.8090 C.3       1 SUB1        0.077
     28 O18        32.8010   37.6480   14.7910 O.3       1 SUB1       -0.375
     29 C19        32.6720   38.9270   14.1580 C.3       1 SUB1        0.071
     30 C20        33.6100   39.9300   14.8010 C.3       1 SUB1        0.071
     31 O21        32.9430   40.6310   15.8510 O.3       1 SUB1       -0.375
     32 C22        33.5260   41.9120   16.1060 C.3       1 SUB1        0.071
     33 C23        32.8960   42.5390   17.3490 C.3       1 SUB1        0.071
     34 O24        33.5580   42.0700   18.5240 O.3       1 SUB1       -0.381
     35 C25        33.3050   42.9050   19.6530 C.3       1 SUB1        0.036
     36 H153       30.3393   30.8744   17.8861 H         1 SUB1        0.023
     37 H181       30.9848   28.6007   12.7633 H         1 SUB1        0.012
     38 H182       30.3527   27.2716   13.7931 H         1 SUB1        0.012
     39 H183       31.7495   28.2535   14.3511 H         1 SUB1        0.012
     40 H191       27.8115   29.9018   14.1332 H         1 SUB1        0.012
     41 H192       28.1304   28.1871   13.7036 H         1 SUB1        0.012
     42 H193       28.7282   29.5057   12.6402 H         1 SUB1        0.012
     43 H201       28.5329   31.6806   14.8810 H         1 SUB1        0.082
     44 H211       29.4684   34.0367   14.7786 H         1 SUB1        0.065
     45 H231       33.3846   32.4436   13.7810 H         1 SUB1        0.065
     46 H241       32.4464   30.0800   13.8820 H         1 SUB1        0.082
     47 H261       32.6357   35.4591   15.9267 H         1 SUB1        0.066
     48 H262       30.8686   35.1634   15.7980 H         1 SUB1        0.066
     49 H271       30.8660   37.4432   15.5037 H         1 SUB1        0.059
     50 H272       31.1240   36.9447   13.7974 H         1 SUB1        0.059
     51 H291       31.6357   39.2807   14.2626 H         1 SUB1        0.058
     52 H292       32.9205   38.8304   13.0908 H         1 SUB1        0.058
     53 H301       33.9471   40.6503   14.0411 H         1 SUB1        0.058
     54 H302       34.4801   39.3994   15.2148 H         1 SUB1        0.058
     55 H321       33.3537   42.5687   15.2405 H         1 SUB1        0.058
     56 H322       34.6077   41.7937   16.2670 H         1 SUB1        0.058
     57 H331       31.8322   42.2633   17.3962 H         1 SUB1        0.058
     58 H332       32.9890   43.6335   17.2914 H         1 SUB1        0.058
     59 H351       33.8338   42.5050   20.5307 H         1 SUB1        0.052
     60 H352       32.2242   42.9297   19.8560 H         1 SUB1        0.052
     61 H353       33.6620   43.9240   19.4428 H         1 SUB1        0.052
@<TRIPOS>BOND
     1   11    1 1  
     2   11    2 1  
     3   13    3 1  
     4   13    4 1  
     5   13    5 1  
     6   14    6 1  
     7   14    7 1  
     8   14    8 1  
     9   11   16 1  
    10   12   11 1  
    11   12   15 1  
    12   12   14 1  
    13   12   13 1  
    14   16   19 1  
    15   16   18 1  
    16   16   17 1  
    17   17   24 ar 
    18   17   20 ar 
    19   20   21 ar 
    20   21   22 ar 
    21   22   25 1  
    22   22   23 ar 
    23   23   24 ar 
    24   25   26 1  
    25   26   27 1  
    26   27   28 1  
    27   28   29 1  
    28   29   30 1  
    29   30   31 1  
    30   31   32 1  
    31   32   33 1  
    32   33   34 1  
    33   34   35 1  
    34   15    9 1  
    35   15   10 1  
    36   15   36 1  
    37   18   37 1  
    38   18   38 1  
    39   18   39 1  
    40   19   40 1  
    41   19   41 1  
    42   19   42 1  
    43   20   43 1  
    44   21   44 1  
    45   23   45 1  
    46   24   46 1  
    47   26   47 1  
    48   26   48 1  
    49   27   49 1  
    50   27   50 1  
    51   29   51 1  
    52   29   52 1  
    53   30   53 1  
    54   30   54 1  
    55   32   55 1  
    56   32   56 1  
    57   33   57 1  
    58   33   58 1  
    59   35   59 1  
    60   35   60 1  
    61   35   61 1  
@<TRIPOS>SUBSTRUCTURE
     1 SUB1        1 GROUP

