### 
### Created by X-TOOL on Tue Oct 25 00:06:34 2005
### 

@<TRIPOS>MOLECULE
1h1s_ligand
   50    53     1     0     0
SMALL
GAST_HUCK


@<TRIPOS>ATOM
      1 H231       11.3230   47.0378   52.3426 H         1 SUB1        0.132
      2 H241        4.9129   44.6600   51.5606 H         1 SUB1        0.063
      3 H242        4.5548   46.2447   50.7942 H         1 SUB1        0.063
      4 H251        4.0538   47.1870   53.0322 H         1 SUB1        0.033
      5 H261        5.3185   45.7585   54.5181 H         1 SUB1        0.027
      6 H262        4.2332   44.3742   54.1542 H         1 SUB1        0.027
      7 H271        3.5205   46.9306   55.6463 H         1 SUB1        0.026
      8 H272        3.6944   45.2776   56.3274 H         1 SUB1        0.026
      9 H281        1.2110   45.9622   55.9073 H         1 SUB1        0.026
     10 H282        1.6886   44.4737   55.0224 H         1 SUB1        0.026
     11 H291        1.6086   47.3289   53.9429 H         1 SUB1        0.026
     12 H292        0.4974   45.9837   53.5159 H         1 SUB1        0.026
     13 H301        2.2985   44.8122   52.3122 H         1 SUB1        0.027
     14 H302        2.1716   46.4977   51.7042 H         1 SUB1        0.027
     15 H311        4.1634   40.2829   46.9823 H         1 SUB1        0.061
     16 H331        3.4040   41.4145   51.0697 H         1 SUB1        0.061
     17 H341        5.5420   42.5672   51.1005 H         1 SUB1        0.054
     18 H351        0.1471   40.0892   49.9466 H         1 SUB1        0.163
     19 H411       11.4543   45.1319   50.6333 H         1 SUB1        0.238
     20 H441        7.9468   42.5403   48.2538 H         1 SUB1        0.216
     21 H461        6.2173   41.5720   47.0242 H         1 SUB1        0.054
     22 C2          7.6500   43.8340   49.7640 C.ar      1 SUB1        0.179
     23 C8         10.4750   46.4910   51.9330 C.2       1 SUB1        0.103
     24 C10         4.8960   45.7490   51.7150 C.3       1 SUB1        0.080
     25 C11         3.9390   46.1020   52.8920 C.3       1 SUB1       -0.012
     26 C12         4.2880   45.4670   54.2670 C.3       1 SUB1       -0.048
     27 C13         3.3970   45.8570   55.4410 C.3       1 SUB1       -0.053
     28 C14         1.8520   45.5580   55.1100 C.3       1 SUB1       -0.053
     29 C15         1.5320   46.2430   53.7850 C.3       1 SUB1       -0.053
     30 C16         2.4500   45.8720   52.5650 C.3       1 SUB1       -0.048
     31 C19         4.4350   40.8130   47.8880 C.ar      1 SUB1       -0.045
     32 C20         3.6020   40.7530   48.9770 C.ar      1 SUB1        0.096
     33 C21         4.0230   41.4320   50.1800 C.ar      1 SUB1       -0.045
     34 C22         5.2240   42.1010   50.1750 C.ar      1 SUB1       -0.037
     35 N26         1.0630   40.4980   49.8460 N.am      1 SUB1       -0.262
     36 N1          6.6580   44.5200   50.5610 N.ar      1 SUB1       -0.240
     37 C6          7.0800   45.4670   51.3690 C.ar      1 SUB1        0.176
     38 O6          6.2540   46.2290   52.0730 O.3       1 SUB1       -0.293
     39 C5          8.4650   45.7670   51.5400 C.ar      1 SUB1        0.104
     40 N7          9.2320   46.7290   52.2560 N.2       1 SUB1       -0.302
     41 N9         10.5880   45.5050   51.0470 N.pl3     1 SUB1       -0.240
     42 C4          9.3620   45.1110   50.8140 C.ar      1 SUB1        0.145
     43 N3          8.8790   44.0990   49.9700 N.ar      1 SUB1       -0.257
     44 N2          7.2860   42.8560   48.9780 N.pl3     1 SUB1       -0.249
     45 C17         6.0650   42.2250   49.0670 C.ar      1 SUB1        0.064
     46 C18         5.6110   41.5340   47.9220 C.ar      1 SUB1       -0.037
     47 S23         2.1470   39.7960   48.9300 S.o2      1 SUB1        0.061
     48 O24         2.4550   38.5120   49.5420 O.2       1 SUB1       -0.152
     49 O25         1.5530   39.7400   47.5990 O.2       1 SUB1       -0.152
     50 H352        1.2870   41.3469   50.3247 H         1 SUB1        0.163
@<TRIPOS>BOND
     1   23    1 1  
     2   24    2 1  
     3   24    3 1  
     4   25    4 1  
     5   26    5 1  
     6   26    6 1  
     7   27    7 1  
     8   27    8 1  
     9   28    9 1  
    10   28   10 1  
    11   29   11 1  
    12   29   12 1  
    13   30   13 1  
    14   30   14 1  
    15   31   15 1  
    16   33   16 1  
    17   34   17 1  
    18   35   18 1  
    19   41   19 1  
    20   44   20 1  
    21   44   22 1  
    22   22   43 ar 
    23   22   36 ar 
    24   36   37 ar 
    25   37   39 ar 
    26   37   38 1  
    27   38   24 1  
    28   24   25 1  
    29   25   30 1  
    30   25   26 1  
    31   26   27 1  
    32   27   28 1  
    33   29   28 1  
    34   30   29 1  
    35   42   39 ar 
    36   39   40 1  
    37   40   23 2  
    38   41   23 1  
    39   42   41 1  
    40   43   42 ar 
    41   45   44 1  
    42   46   45 ar 
    43   34   45 ar 
    44   33   34 ar 
    45   32   33 ar 
    46   47   32 1  
    47   32   31 ar 
    48   31   46 ar 
    49   47   35 1  
    50   47   49 2  
    51   47   48 2  
    52   46   21 1  
    53   35   50 1  
@<TRIPOS>SUBSTRUCTURE
     1 SUB1        1 GROUP

