1gjd_ligand
  -I-interpret- 

 36 37  0  0  0  0  0  0  0  0999 V2000
    9.4064    2.2546   22.6550 H   0  0  0  0  0
    9.4595    3.4353   26.7829 H   0  0  0  0  0
    8.5318    1.2569   27.4376 H   0  0  0  0  0
    6.8510   -1.7556   27.2464 H   0  0  0  0  0
    6.9236    0.0177   27.4279 H   0  0  0  0  0
    8.9437   -1.7609   24.4053 H   0  0  0  0  0
    8.0152   -2.7622   25.5535 H   0  0  0  0  0
   10.8279    4.1085   23.8234 H   0  0  0  0  0
    9.1485    7.7700   25.5788 H   0  0  0  0  0
   11.0647   10.9612   24.6764 H   0  0  0  0  0
   10.4314   10.2336   26.1917 H   0  0  0  0  0
    9.3362   10.4859   24.7905 H   0  0  0  0  0
   12.3419    9.6252   23.4599 H   0  0  0  0  0
   11.4494    4.4251   23.3359 H   0  0  0  0  0
    8.4240    0.4770   25.4380 C   0  0  0  0  0
    8.6750    0.7880   24.0770 C   0  0  0  0  0
    9.2100    2.0250   23.6960 C   0  0  0  0  0
    9.4780    2.9400   24.6910 C   0  0  0  0  0
    9.2400    2.6860   26.0310 C   0  0  0  0  0
    8.7190    1.4630   26.3900 C   0  0  0  0  0
    7.9660   -0.7630   25.8710 C   0  3  0  0  0
    7.1920   -0.8390   26.9230 N   0  0  0  0  0
    8.3340   -1.8370   25.2320 N   0  0  0  0  0
   10.0210    4.0990   24.4140 N   0  0  0  0  0
    9.5730    5.2520   24.8630 C   0  0  0  0  0
    8.5730    5.3300   25.5720 O   0  0  0  0  0
   10.3470    6.3850   24.4390 C   0  0  0  0  0
   10.0010    7.6750   24.9160 C   0  0  0  0  0
   10.7100    8.8310   24.5700 C   0  0  0  0  0
   10.3610   10.2260   25.0940 C   0  0  0  0  0
   11.7910    8.7310   23.7280 C   0  0  0  0  0
   12.1880    7.5100   23.2170 C   0  0  0  0  0
   11.4910    6.3340   23.5630 C   0  0  0  0  0
   11.9890    5.1500   23.0430 O   0  0  0  0  0
    8.2710   -0.3910   22.7950 Cl  0  0  0  0  0
   13.7640    7.5300   21.9140 I   0  0  0  0  0
 17  1  1  0  0  0
 19  2  1  0  0  0
 20  3  1  0  0  0
 22  4  1  0  0  0
 22  5  1  0  0  0
 23  6  1  0  0  0
 23  7  1  0  0  0
 24  8  1  0  0  0
 28  9  1  0  0  0
 30 10  1  0  0  0
 30 11  1  0  0  0
 30 12  1  0  0  0
 31 13  1  0  0  0
 34 14  1  0  0  0
 21 15  1  0  0  0
 15 20  4  0  0  0
 15 16  4  0  0  0
 16 17  4  0  0  0
 17 18  4  0  0  0
 18 24  1  0  0  0
 19 18  4  0  0  0
 20 19  4  0  0  0
 24 25  1  0  0  0
 25 27  1  0  0  0
 25 26  2  0  0  0
 27 33  4  0  0  0
 27 28  4  0  0  0
 28 29  4  0  0  0
 29 31  4  0  0  0
 29 30  1  0  0  0
 32 31  4  0  0  0
 33 32  4  0  0  0
 33 34  1  0  0  0
 21 23  1  0  0  0
 21 22  1  0  0  0
 16 35  1  0  0  0
 32 36  1  0  0  0
M  END
$$$$
