### 
### Created by X-TOOL on Mon Oct 24 22:36:13 2005
### 

@<TRIPOS>MOLECULE
1gjd_ligand
   36    37     1     0     0
SMALL
GAST_HUCK


@<TRIPOS>ATOM
      1 H171        9.4064    2.2546   22.6550 H         1 SUB1        0.051
      2 H191        9.4595    3.4353   26.7829 H         1 SUB1        0.051
      3 H201        8.5318    1.2569   27.4376 H         1 SUB1        0.062
      4 H221        6.8510   -1.7556   27.2464 H         1 SUB1        0.192
      5 H222        6.9236    0.0177   27.4279 H         1 SUB1        0.192
      6 H231        8.9437   -1.7609   24.4053 H         1 SUB1        0.192
      7 H232        8.0152   -2.7622   25.5535 H         1 SUB1        0.192
      8 H241       10.8279    4.1085   23.8234 H         1 SUB1        0.225
      9 H281        9.1485    7.7700   25.5788 H         1 SUB1        0.060
     10 H301       11.0647   10.9612   24.6764 H         1 SUB1        0.037
     11 H302       10.4314   10.2336   26.1917 H         1 SUB1        0.037
     12 H303        9.3362   10.4859   24.7905 H         1 SUB1        0.037
     13 H311       12.3419    9.6252   23.4599 H         1 SUB1        0.060
     14 H341       11.4494    4.4251   23.3359 H         1 SUB1        0.250
     15 C1          8.4240    0.4770   25.4380 C.ar      1 SUB1        0.184
     16 C2          8.6750    0.7880   24.0770 C.ar      1 SUB1        0.081
     17 C3          9.2100    2.0250   23.6960 C.ar      1 SUB1       -0.023
     18 C4          9.4780    2.9400   24.6910 C.ar      1 SUB1        0.066
     19 C5          9.2400    2.6860   26.0310 C.ar      1 SUB1       -0.037
     20 C6          8.7190    1.4630   26.3900 C.ar      1 SUB1       -0.020
     21 C7          7.9660   -0.7630   25.8710 C.cat     1 SUB1        0.308
     22 N1          7.1920   -0.8390   26.9230 N.pl3     1 SUB1       -0.202
     23 N2          8.3340   -1.8370   25.2320 N.pl3     1 SUB1       -0.202
     24 N3         10.0210    4.0990   24.4140 N.am      1 SUB1       -0.235
     25 C8          9.5730    5.2520   24.8630 C.2       1 SUB1        0.226
     26 O8          8.5730    5.3300   25.5720 O.2       1 SUB1       -0.379
     27 C9         10.3470    6.3850   24.4390 C.ar      1 SUB1        0.081
     28 C10        10.0010    7.6750   24.9160 C.ar      1 SUB1       -0.046
     29 C11        10.7100    8.8310   24.5700 C.ar      1 SUB1       -0.048
     30 C21        10.3610   10.2260   25.0940 C.3       1 SUB1       -0.035
     31 C12        11.7910    8.7310   23.7280 C.ar      1 SUB1       -0.053
     32 C13        12.1880    7.5100   23.2170 C.ar      1 SUB1        0.037
     33 C14        11.4910    6.3340   23.5630 C.ar      1 SUB1        0.114
     34 O14        11.9890    5.1500   23.0430 O.3       1 SUB1       -0.330
     35 CL2         8.2710   -0.3910   22.7950 Cl        1 SUB1       -0.070
     36 I13        13.7640    7.5300   21.9140 I         1 SUB1       -0.057
@<TRIPOS>BOND
     1   17    1 1  
     2   19    2 1  
     3   20    3 1  
     4   22    4 1  
     5   22    5 1  
     6   23    6 1  
     7   23    7 1  
     8   24    8 1  
     9   28    9 1  
    10   30   10 1  
    11   30   11 1  
    12   30   12 1  
    13   31   13 1  
    14   34   14 1  
    15   21   15 1  
    16   15   20 ar 
    17   15   16 ar 
    18   16   17 ar 
    19   17   18 ar 
    20   18   24 1  
    21   19   18 ar 
    22   20   19 ar 
    23   24   25 am 
    24   25   27 1  
    25   25   26 2  
    26   27   33 ar 
    27   27   28 ar 
    28   28   29 ar 
    29   29   31 ar 
    30   29   30 1  
    31   32   31 ar 
    32   33   32 ar 
    33   33   34 1  
    34   21   23 1  
    35   21   22 1  
    36   16   35 1  
    37   32   36 1  
@<TRIPOS>SUBSTRUCTURE
     1 SUB1        1 GROUP

