1w8m_ligand
  -I-interpret- 

 28 28  0  0  0  0  0  0  0  0999 V2000
    5.9000   58.8910   51.3070 C   0  0  0  0  0
    6.6180   58.1530   50.1670 C   0  0  0  0  0
    5.8080   56.9570   49.6620 C   0  0  0  0  0
    5.4160   55.9920   50.7780 C   0  0  0  0  0
    4.7370   56.7190   51.9240 C   0  0  0  0  0
    5.5710   57.8750   52.3330 N   0  0  0  0  0
    6.0070   57.9710   53.5800 C   0  0  0  0  0
    6.7210   58.8830   54.0070 O   0  0  0  0  0
    5.6060   56.8390   54.5000 C   0  0  0  0  0
    6.3060   55.8410   54.5470 O   0  0  0  0  0
    4.4840   57.0390   55.2400 O   0  0  0  0  0
    4.1710   56.0540   56.2450 C   0  0  0  0  0
    2.7710   56.2860   56.8140 C   0  0  0  0  0
    4.9797   59.3628   50.9324 H   0  0  0  0  0
    6.5592   59.6610   51.7342 H   0  0  0  0  0
    7.5913   57.7942   50.5331 H   0  0  0  0  0
    6.7753   58.8533   49.3335 H   0  0  0  0  0
    6.4118   56.4113   48.9220 H   0  0  0  0  0
    4.8911   57.3310   49.1831 H   0  0  0  0  0
    6.3215   55.4947   51.1559 H   0  0  0  0  0
    4.7252   55.2378   50.3731 H   0  0  0  0  0
    4.6174   56.0327   52.7753 H   0  0  0  0  0
    3.7486   57.0757   51.5988 H   0  0  0  0  0
    4.9073   56.1228   57.0593 H   0  0  0  0  0
    4.2156   55.0517   55.7941 H   0  0  0  0  0
    2.5546   55.5241   57.5773 H   0  0  0  0  0
    2.0297   56.2148   56.0044 H   0  0  0  0  0
    2.7214   57.2859   57.2697 H   0  0  0  0  0
  1  2  1  0  0  0
  1  6  1  0  0  0
  2  3  1  0  0  0
  3  4  1  0  0  0
  4  5  1  0  0  0
  5  6  1  0  0  0
  6  7  1  0  0  0
  7  8  2  0  0  0
  7  9  1  0  0  0
  9 10  2  0  0  0
  9 11  1  0  0  0
 11 12  1  0  0  0
 12 13  1  0  0  0
  1 14  1  0  0  0
  1 15  1  0  0  0
  2 16  1  0  0  0
  2 17  1  0  0  0
  3 18  1  0  0  0
  3 19  1  0  0  0
  4 20  1  0  0  0
  4 21  1  0  0  0
  5 22  1  0  0  0
  5 23  1  0  0  0
 12 24  1  0  0  0
 12 25  1  0  0  0
 13 26  1  0  0  0
 13 27  1  0  0  0
 13 28  1  0  0  0
M  END
$$$$
