### 
### Created by X-TOOL on Mon Oct 24 22:27:22 2005
### 

@<TRIPOS>MOLECULE
1w8m_ligand
   28    28     1     0     0
SMALL
GAST_HUCK


@<TRIPOS>ATOM
      1 C3          5.9000   58.8910   51.3070 C.3       1 SUB1        0.035
      2 C2          6.6180   58.1530   50.1670 C.3       1 SUB1       -0.032
      3 C1          5.8080   56.9570   49.6620 C.3       1 SUB1       -0.049
      4 C5          5.4160   55.9920   50.7780 C.3       1 SUB1       -0.032
      5 C4          4.7370   56.7190   51.9240 C.3       1 SUB1        0.035
      6 N1          5.5710   57.8750   52.3330 N.am      1 SUB1       -0.260
      7 C6          6.0070   57.9710   53.5800 C.2       1 SUB1        0.300
      8 O2          6.7210   58.8830   54.0070 O.2       1 SUB1       -0.356
      9 C7          5.6060   56.8390   54.5000 C.2       1 SUB1        0.345
     10 O3          6.3060   55.8410   54.5470 O.2       1 SUB1       -0.329
     11 O4          4.4840   57.0390   55.2400 O.3       1 SUB1       -0.267
     12 C8          4.1710   56.0540   56.2450 C.3       1 SUB1        0.074
     13 C9          2.7710   56.2860   56.8140 C.3       1 SUB1       -0.037
     14 H11         4.9797   59.3628   50.9324 H         1 SUB1        0.052
     15 H12         6.5592   59.6610   51.7342 H         1 SUB1        0.052
     16 H21         7.5913   57.7942   50.5331 H         1 SUB1        0.029
     17 H22         6.7753   58.8533   49.3335 H         1 SUB1        0.029
     18 H31         6.4118   56.4113   48.9220 H         1 SUB1        0.027
     19 H32         4.8911   57.3310   49.1831 H         1 SUB1        0.027
     20 H41         6.3215   55.4947   51.1559 H         1 SUB1        0.029
     21 H42         4.7252   55.2378   50.3731 H         1 SUB1        0.029
     22 H51         4.6174   56.0327   52.7753 H         1 SUB1        0.052
     23 H52         3.7486   57.0757   51.5988 H         1 SUB1        0.052
     24 H121        4.9073   56.1228   57.0593 H         1 SUB1        0.061
     25 H122        4.2156   55.0517   55.7941 H         1 SUB1        0.061
     26 H131        2.5546   55.5241   57.5773 H         1 SUB1        0.025
     27 H132        2.0297   56.2148   56.0044 H         1 SUB1        0.025
     28 H133        2.7214   57.2859   57.2697 H         1 SUB1        0.025
@<TRIPOS>BOND
     1    1    2 1  
     2    1    6 1  
     3    2    3 1  
     4    3    4 1  
     5    4    5 1  
     6    5    6 1  
     7    6    7 am 
     8    7    8 2  
     9    7    9 1  
    10    9   10 2  
    11    9   11 1  
    12   11   12 1  
    13   12   13 1  
    14    1   14 1  
    15    1   15 1  
    16    2   16 1  
    17    2   17 1  
    18    3   18 1  
    19    3   19 1  
    20    4   20 1  
    21    4   21 1  
    22    5   22 1  
    23    5   23 1  
    24   12   24 1  
    25   12   25 1  
    26   13   26 1  
    27   13   27 1  
    28   13   28 1  
@<TRIPOS>SUBSTRUCTURE
     1 SUB1        1 GROUP

