1bn3_ligand
  -I-interpret- 

 35 37  0  0  0  0  0  0  0  0999 V2000
   -1.4583    5.2644   13.4256 H   0  0  0  0  0
   -1.7324    3.0378   14.2872 H   0  0  0  0  0
   -5.2650    1.9590   15.9200 C   0  0  0  0  0
   -0.9340    9.4020   15.5110 O   0  0  0  0  0
   -2.4550    4.9840   13.7630 C   0  0  0  0  0
   -2.5930    3.7050   14.2800 C   0  0  0  0  0
   -2.9660    7.2090   13.5990 C   0  0  0  0  0
   -3.3770    8.0350   12.5370 C   0  0  0  0  0
   -2.9400    9.3550   12.4680 C   0  0  0  0  0
   -2.1020    9.8560   13.4610 C   0  0  0  0  0
   -1.7040    9.0120   14.5310 C   0  0  0  0  0
   -2.1320    7.6890   14.6040 C   0  0  0  0  0
   -5.2880    0.7240   18.0410 O   0  0  0  0  0
   -7.2870    0.7870   16.8540 O   0  0  0  0  0
   -5.4860   -0.7710   16.1350 N   0  0  0  0  0
   -5.8870    0.6240   16.7890 S   0  0  0  0  0
   -3.9950    2.0400   15.3980 C   0  0  0  0  0
   -3.8050    3.2560   14.7890 C   0  0  0  0  0
   -4.9210    4.0680   14.7970 C   0  0  0  0  0
   -6.1980    3.3560   15.6260 S   0  0  0  0  0
   -4.8740    5.5810   14.0070 S   0  0  0  0  0
   -5.4900    5.3090   12.7750 O   0  0  0  0  0
   -5.7290    6.4750   14.7310 O   0  0  0  0  0
   -3.4630    5.9640   13.6250 N   0  0  0  0  0
   -0.4480   10.7670   15.4990 C   0  0  0  0  0
   -4.0356    7.6427   11.7705 H   0  0  0  0  0
   -3.2504    9.9895   11.6457 H   0  0  0  0  0
   -1.7563   10.8825   13.4173 H   0  0  0  0  0
   -1.8233    7.0493   15.4229 H   0  0  0  0  0
   -3.2463    1.2515   15.4590 H   0  0  0  0  0
    0.1823   10.9396   16.3838 H   0  0  0  0  0
   -1.3018   11.4604   15.5162 H   0  0  0  0  0
    0.1445   10.9373   14.5880 H   0  0  0  0  0
   -5.7942   -1.6328   16.5573 H   0  0  0  0  0
   -4.9283   -0.7923   15.3052 H   0  0  0  0  0
  3 20  1  0  0  0
  3 17  2  0  0  0
  3 16  1  0  0  0
 16 13  2  0  0  0
 16 14  2  0  0  0
 16 15  1  0  0  0
 17 18  1  0  0  0
 18 19  2  0  0  0
 18  6  1  0  0  0
  6  5  2  0  0  0
  5 24  1  0  0  0
 24  7  1  0  0  0
 24 21  1  0  0  0
 21 23  2  0  0  0
 21 22  2  0  0  0
 21 19  1  0  0  0
 19 20  1  0  0  0
  7 12  4  0  0  0
  7  8  4  0  0  0
  8  9  4  0  0  0
  9 10  4  0  0  0
 10 11  4  0  0  0
 11 12  4  0  0  0
 11  4  1  0  0  0
  4 25  1  0  0  0
  5  1  1  0  0  0
  6  2  1  0  0  0
  8 26  1  0  0  0
  9 27  1  0  0  0
 10 28  1  0  0  0
 12 29  1  0  0  0
 17 30  1  0  0  0
 25 31  1  0  0  0
 25 32  1  0  0  0
 25 33  1  0  0  0
 15 34  1  0  0  0
 15 35  1  0  0  0
M  END
$$$$
