### 
### Created by X-TOOL on Tue Oct 25 01:26:09 2005
### 

@<TRIPOS>MOLECULE
1bn3_ligand
   35    37     1     0     0
SMALL
GAST_HUCK


@<TRIPOS>ATOM
      1 H51        -1.4583    5.2644   13.4256 H         1 SUB1        0.102
      2 H61        -1.7324    3.0378   14.2872 H         1 SUB1        0.021
      3 C3         -5.2650    1.9590   15.9200 C.2       1 SUB1        0.159
      4 O5         -0.9340    9.4020   15.5110 O.3       1 SUB1       -0.325
      5 C9         -2.4550    4.9840   13.7630 C.2       1 SUB1        0.056
      6 C10        -2.5930    3.7050   14.2800 C.2       1 SUB1       -0.071
      7 C11        -2.9660    7.2090   13.5990 C.ar      1 SUB1        0.091
      8 C12        -3.3770    8.0350   12.5370 C.ar      1 SUB1       -0.047
      9 C13        -2.9400    9.3550   12.4680 C.ar      1 SUB1       -0.083
     10 C14        -2.1020    9.8560   13.4610 C.ar      1 SUB1       -0.047
     11 C15        -1.7040    9.0120   14.5310 C.ar      1 SUB1        0.078
     12 C16        -2.1320    7.6890   14.6040 C.ar      1 SUB1       -0.009
     13 O1A        -5.2880    0.7240   18.0410 O.2       1 SUB1       -0.150
     14 O2A        -7.2870    0.7870   16.8540 O.2       1 SUB1       -0.150
     15 N21        -5.4860   -0.7710   16.1350 N.am      1 SUB1       -0.260
     16 S1         -5.8870    0.6240   16.7890 S.o2      1 SUB1        0.075
     17 C4         -3.9950    2.0400   15.3980 C.2       1 SUB1       -0.050
     18 C5         -3.8050    3.2560   14.7890 C.2       1 SUB1       -0.044
     19 C6         -4.9210    4.0680   14.7970 C.2       1 SUB1        0.162
     20 S2         -6.1980    3.3560   15.6260 S.3       1 SUB1       -0.002
     21 S7         -4.8740    5.5810   14.0070 S.o2      1 SUB1        0.114
     22 O3B        -5.4900    5.3090   12.7750 O.2       1 SUB1       -0.140
     23 O4B        -5.7290    6.4750   14.7310 O.2       1 SUB1       -0.140
     24 N8         -3.4630    5.9640   13.6250 N.am      1 SUB1       -0.124
     25 C17        -0.4480   10.7670   15.4990 C.3       1 SUB1        0.059
     26 H81        -4.0356    7.6427   11.7705 H         1 SUB1        0.043
     27 H91        -3.2504    9.9895   11.6457 H         1 SUB1        0.055
     28 H101       -1.7563   10.8825   13.4173 H         1 SUB1        0.043
     29 H121       -1.8233    7.0493   15.4229 H         1 SUB1        0.043
     30 H171       -3.2463    1.2515   15.4590 H         1 SUB1        0.041
     31 H251        0.1823   10.9396   16.3838 H         1 SUB1        0.058
     32 H252       -1.3018   11.4604   15.5162 H         1 SUB1        0.058
     33 H253        0.1445   10.9373   14.5880 H         1 SUB1        0.058
     34 H151       -5.7942   -1.6328   16.5573 H         1 SUB1        0.163
     35 H152       -4.9283   -0.7923   15.3052 H         1 SUB1        0.163
@<TRIPOS>BOND
     1    3   20 1  
     2    3   17 2  
     3    3   16 1  
     4   16   13 2  
     5   16   14 2  
     6   16   15 1  
     7   17   18 1  
     8   18   19 2  
     9   18    6 1  
    10    6    5 2  
    11    5   24 am 
    12   24    7 1  
    13   24   21 1  
    14   21   23 2  
    15   21   22 2  
    16   21   19 1  
    17   19   20 1  
    18    7   12 ar 
    19    7    8 ar 
    20    8    9 ar 
    21    9   10 ar 
    22   10   11 ar 
    23   11   12 ar 
    24   11    4 1  
    25    4   25 1  
    26    5    1 1  
    27    6    2 1  
    28    8   26 1  
    29    9   27 1  
    30   10   28 1  
    31   12   29 1  
    32   17   30 1  
    33   25   31 1  
    34   25   32 1  
    35   25   33 1  
    36   15   34 1  
    37   15   35 1  
@<TRIPOS>SUBSTRUCTURE
     1 SUB1        1 GROUP

