### 
### Created by X-TOOL on Tue Oct 25 01:53:49 2005
### 

@<TRIPOS>MOLECULE
1a0q_ligand
   43    43     1     0     0
SMALL
GAST_HUCK


@<TRIPOS>ATOM
      1 H41        14.1246   20.0884   59.8102 H         1 SUB1        0.096
      2 H51        13.0346   19.6157   57.5648 H         1 SUB1        0.032
      3 H52        11.5496   20.4070   58.1936 H         1 SUB1        0.032
      4 C1         13.3050   20.7000   59.4050 C.3       1 SUB1        0.194
      5 C2         12.4520   19.8420   58.4700 C.3       1 SUB1        0.002
      6 C3         12.0320   18.5340   59.1240 C.3       1 SUB1       -0.049
      7 C4         11.2470   17.6310   58.1880 C.3       1 SUB1       -0.056
      8 C5         12.1070   17.1040   57.0260 C.3       1 SUB1       -0.065
      9 C6         14.7350   20.9920   55.3470 C.ar      1 SUB1       -0.118
     10 C7         15.1480   21.1380   54.0250 C.ar      1 SUB1       -0.164
     11 C8         16.3840   21.7100   53.7410 C.ar      1 SUB1       -0.166
     12 C9         17.2110   22.1400   54.7700 C.ar      1 SUB1       -0.164
     13 C10        16.7990   21.9980   56.0940 C.ar      1 SUB1       -0.118
     14 C11        15.5620   21.4200   56.3890 C.ar      1 SUB1        0.074
     15 C12        12.7980   20.9330   61.8050 C.2       1 SUB1        0.181
     16 C13        11.7430   20.6960   64.1740 C.3       1 SUB1        0.003
     17 C14        11.8610   21.4970   62.8700 C.3       1 SUB1        0.049
     18 C15        11.1530   19.2930   64.0350 C.2       1 SUB1        0.030
     19 O1P        12.9990   22.5100   57.5130 O.co2     1 SUB1       -0.406
     20 O2P        14.5790   22.9640   59.4710 O.co2     1 SUB1       -0.406
     21 O3P        15.1750   21.2220   57.7500 O.3       1 SUB1       -0.159
     22 O4         13.7620   20.2300   62.1210 O.2       1 SUB1       -0.397
     23 O5         11.9380   18.3450   64.0180 O.co2     1 SUB1       -0.567
     24 O6          9.9630   19.1340   64.3110 O.co2     1 SUB1       -0.567
     25 N1         12.4830   21.1820   60.5180 N.am      1 SUB1       -0.254
     26 P          13.9840   22.0210   58.4990 P.3       1 SUB1        0.359
     27 H61        11.4048   18.7639   59.9979 H         1 SUB1        0.027
     28 H62        12.9357   17.9993   59.4517 H         1 SUB1        0.027
     29 H71        10.4025   18.2006   57.7728 H         1 SUB1        0.026
     30 H72        10.8645   16.7740   58.7617 H         1 SUB1        0.026
     31 H81        11.4943   16.4579   56.3801 H         1 SUB1        0.023
     32 H82        12.9517   16.5253   57.4280 H         1 SUB1        0.023
     33 H83        12.4897   17.9520   56.4391 H         1 SUB1        0.023
     34 H91        13.7718   20.5463   55.5678 H         1 SUB1        0.005
     35 H101       14.5062   20.8058   53.2170 H         1 SUB1        0.007
     36 H111       16.7030   21.8205   52.7109 H         1 SUB1        0.007
     37 H121       18.1736   22.5845   54.5445 H         1 SUB1        0.007
     38 H131       17.4414   22.3376   56.8984 H         1 SUB1        0.005
     39 H161       11.1034   21.2654   64.8645 H         1 SUB1        0.051
     40 H162       12.7508   20.5984   64.6038 H         1 SUB1        0.051
     41 H171       10.8560   21.5655   62.4282 H         1 SUB1        0.054
     42 H172       12.2175   22.5050   63.1285 H         1 SUB1        0.054
     43 H251       11.6605   21.7137   60.3162 H         1 SUB1        0.188
@<TRIPOS>BOND
     1    4   26 1  
     2    4   25 1  
     3    4    5 1  
     4    5    6 1  
     5    6    7 1  
     6    7    8 1  
     7   25   15 am 
     8   15   22 2  
     9   15   17 1  
    10   17   16 1  
    11   16   18 1  
    12   18   23 2  
    13   18   24 2  
    14   26   19 2  
    15   26   20 2  
    16   26   21 1  
    17   21   14 1  
    18   14   13 ar 
    19   14    9 ar 
    20    9   10 ar 
    21   10   11 ar 
    22   11   12 ar 
    23   12   13 ar 
    24    4    1 1  
    25    5    2 1  
    26    5    3 1  
    27    6   27 1  
    28    6   28 1  
    29    7   29 1  
    30    7   30 1  
    31    8   31 1  
    32    8   32 1  
    33    8   33 1  
    34    9   34 1  
    35   10   35 1  
    36   11   36 1  
    37   12   37 1  
    38   13   38 1  
    39   16   39 1  
    40   16   40 1  
    41   17   41 1  
    42   17   42 1  
    43   25   43 1  
@<TRIPOS>SUBSTRUCTURE
     1 SUB1        1 GROUP

