1a0q_ligand
  -I-interpret- 

 43 43  0  0  0  0  0  0  0  0999 V2000
   14.1246   20.0884   59.8102 H   0  0  0  0  0
   13.0346   19.6157   57.5648 H   0  0  0  0  0
   11.5496   20.4070   58.1936 H   0  0  0  0  0
   13.3050   20.7000   59.4050 C   0  0  0  0  0
   12.4520   19.8420   58.4700 C   0  0  0  0  0
   12.0320   18.5340   59.1240 C   0  0  0  0  0
   11.2470   17.6310   58.1880 C   0  0  0  0  0
   12.1070   17.1040   57.0260 C   0  0  0  0  0
   14.7350   20.9920   55.3470 C   0  0  0  0  0
   15.1480   21.1380   54.0250 C   0  0  0  0  0
   16.3840   21.7100   53.7410 C   0  0  0  0  0
   17.2110   22.1400   54.7700 C   0  0  0  0  0
   16.7990   21.9980   56.0940 C   0  0  0  0  0
   15.5620   21.4200   56.3890 C   0  0  0  0  0
   12.7980   20.9330   61.8050 C   0  0  0  0  0
   11.7430   20.6960   64.1740 C   0  0  0  0  0
   11.8610   21.4970   62.8700 C   0  0  0  0  0
   11.1530   19.2930   64.0350 C   0  0  0  0  0
   12.9990   22.5100   57.5130 O   0  0  0  0  0
   14.5790   22.9640   59.4710 O   0  5  0  0  0
   15.1750   21.2220   57.7500 O   0  0  0  0  0
   13.7620   20.2300   62.1210 O   0  0  0  0  0
   11.9380   18.3450   64.0180 O   0  0  0  0  0
    9.9630   19.1340   64.3110 O   0  5  0  0  0
   12.4830   21.1820   60.5180 N   0  0  0  0  0
   13.9840   22.0210   58.4990 P   0  0  0  0  0
   11.4048   18.7639   59.9979 H   0  0  0  0  0
   12.9357   17.9993   59.4517 H   0  0  0  0  0
   10.4025   18.2006   57.7728 H   0  0  0  0  0
   10.8645   16.7740   58.7617 H   0  0  0  0  0
   11.4943   16.4579   56.3801 H   0  0  0  0  0
   12.9517   16.5253   57.4280 H   0  0  0  0  0
   12.4897   17.9520   56.4391 H   0  0  0  0  0
   13.7718   20.5463   55.5678 H   0  0  0  0  0
   14.5062   20.8058   53.2170 H   0  0  0  0  0
   16.7030   21.8205   52.7109 H   0  0  0  0  0
   18.1736   22.5845   54.5445 H   0  0  0  0  0
   17.4414   22.3376   56.8984 H   0  0  0  0  0
   11.1034   21.2654   64.8645 H   0  0  0  0  0
   12.7508   20.5984   64.6038 H   0  0  0  0  0
   10.8560   21.5655   62.4282 H   0  0  0  0  0
   12.2175   22.5050   63.1285 H   0  0  0  0  0
   11.6605   21.7137   60.3162 H   0  0  0  0  0
  4 26  1  0  0  0
  4 25  1  0  0  0
  4  5  1  0  0  0
  5  6  1  0  0  0
  6  7  1  0  0  0
  7  8  1  0  0  0
 25 15  1  0  0  0
 15 22  2  0  0  0
 15 17  1  0  0  0
 17 16  1  0  0  0
 16 18  1  0  0  0
 18 23  2  0  0  0
 18 24  1  0  0  0
 26 19  2  0  0  0
 26 20  1  0  0  0
 26 21  1  0  0  0
 21 14  1  0  0  0
 14 13  4  0  0  0
 14  9  4  0  0  0
  9 10  4  0  0  0
 10 11  4  0  0  0
 11 12  4  0  0  0
 12 13  4  0  0  0
  4  1  1  0  0  0
  5  2  1  0  0  0
  5  3  1  0  0  0
  6 27  1  0  0  0
  6 28  1  0  0  0
  7 29  1  0  0  0
  7 30  1  0  0  0
  8 31  1  0  0  0
  8 32  1  0  0  0
  8 33  1  0  0  0
  9 34  1  0  0  0
 10 35  1  0  0  0
 11 36  1  0  0  0
 12 37  1  0  0  0
 13 38  1  0  0  0
 16 39  1  0  0  0
 16 40  1  0  0  0
 17 41  1  0  0  0
 17 42  1  0  0  0
 25 43  1  0  0  0
M  END
$$$$
