### 
### Created by X-TOOL on Tue Oct 25 02:03:11 2005
### 

@<TRIPOS>MOLECULE
2a4m_ligand
   27    28     1     0     0
SMALL
GAST_HUCK


@<TRIPOS>ATOM
      1 N          49.4880   14.8270   20.1100 N.4       1 SUB1        0.239
      2 CA         49.9380   13.4530   20.2700 C.3       1 SUB1        0.019
      3 C          49.5240   12.6060   19.0680 C.2       1 SUB1        0.077
      4 O          49.3770   13.1450   17.9550 O.co2     1 SUB1       -0.561
      5 CB         49.3420   12.8360   21.5570 C.3       1 SUB1        0.018
      6 CG         49.6470   11.3910   21.7860 C.2       1 SUB1       -0.038
      7 CD1        50.8910   10.8190   21.8960 C.2       1 SUB1        0.017
      8 CD2        48.7050   10.3210   21.9340 C.ar      1 SUB1       -0.021
      9 NE1        50.7810    9.4710   22.0810 N.pl3     1 SUB1       -0.289
     10 CE2        49.4530    9.1340   22.1260 C.ar      1 SUB1        0.060
     11 CE3        47.3060   10.2410   21.9050 C.ar      1 SUB1       -0.075
     12 CZ2        48.8360    7.8720   22.2650 C.ar      1 SUB1       -0.044
     13 CZ3        46.7100    8.9900   22.0530 C.ar      1 SUB1       -0.079
     14 CH2        47.4680    7.8360   22.2390 C.ar      1 SUB1       -0.077
     15 OXT        49.3770   11.3690   19.2460 O.co2     1 SUB1       -0.561
     16 H11        49.7704   15.3686   20.9119 H         1 SUB1        0.202
     17 H12        48.4834   14.8444   20.0298 H         1 SUB1        0.202
     18 H13        49.8984   15.2202   19.2776 H         1 SUB1        0.202
     19 H21        51.0353   13.4491   20.3473 H         1 SUB1        0.108
     20 H51        48.2486   12.9469   21.5097 H         1 SUB1        0.044
     21 H52        49.7314   13.4034   22.4152 H         1 SUB1        0.044
     22 H71        51.8323   11.3641   21.8431 H         1 SUB1        0.079
     23 H91        51.5685    8.8134   22.1721 H         1 SUB1        0.222
     24 H111       46.7020   11.1310   21.7706 H         1 SUB1        0.054
     25 H121       49.4218    6.9682   22.3874 H         1 SUB1        0.054
     26 H131       45.6292    8.9129   22.0226 H         1 SUB1        0.051
     27 H141       46.9618    6.8859   22.3663 H         1 SUB1        0.053
@<TRIPOS>BOND
     1    1    2 1  
     2    2    3 1  
     3    2    5 1  
     4    3    4 2  
     5    3   15 2  
     6    5    6 1  
     7    6    7 2  
     8    6    8 1  
     9    7    9 1  
    10    8   10 ar 
    11    8   11 ar 
    12    9   10 1  
    13   10   12 ar 
    14   11   13 ar 
    15   12   14 ar 
    16   13   14 ar 
    17    1   16 1  
    18    1   17 1  
    19    1   18 1  
    20    2   19 1  
    21    5   20 1  
    22    5   21 1  
    23    7   22 1  
    24    9   23 1  
    25   11   24 1  
    26   12   25 1  
    27   13   26 1  
    28   14   27 1  
@<TRIPOS>SUBSTRUCTURE
     1 SUB1        1 GROUP

