2cgr_ligand
  -I-interpret- 

 49 51  0  0  0  0  0  0  0  0999 V2000
  -10.3872   42.3217   17.3204 H   0  0  0  0  0
   -8.0731   43.2788   18.1426 H   0  0  0  0  0
   -8.2596   41.9598   19.3477 H   0  0  0  0  0
   -9.9758   38.9781   16.5266 H   0  0  0  0  0
  -11.3535   40.2503   18.7604 H   0  0  0  0  0
  -12.3453   39.5702   15.2569 H   0  0  0  0  0
  -13.6318   41.2743   14.0452 H   0  0  0  0  0
  -14.4534   43.2778   15.2187 H   0  0  0  0  0
  -14.0296   43.5792   17.6266 H   0  0  0  0  0
  -12.7459   41.8769   18.8651 H   0  0  0  0  0
  -13.9023   38.7279   17.1376 H   0  0  0  0  0
  -14.5311   36.3552   17.4380 H   0  0  0  0  0
  -12.9645   34.7854   18.5251 H   0  0  0  0  0
  -10.7830   35.6016   19.3314 H   0  0  0  0  0
  -10.1648   37.9574   19.0403 H   0  0  0  0  0
   -7.7063   41.3003   16.3233 H   0  0  0  0  0
   -7.9117   38.2688   18.3409 H   0  0  0  0  0
   -6.4386   36.3146   18.0149 H   0  0  0  0  0
   -4.9449   38.0354   14.4257 H   0  0  0  0  0
   -6.4147   39.9828   14.7447 H   0  0  0  0  0
   -9.2360   40.6660   17.3360 C   0  3  0  0  0
   -9.5480   41.8890   17.7320 N   0  0  0  0  0
   -8.7980   42.6710   18.7040 C   0  0  0  0  0
   -9.5590   43.6100   19.6140 C   0  0  0  0  0
   -8.9230   44.4930   20.2310 O   0  0  0  0  0
  -10.8020   43.6590   19.4680 O   0  5  0  0  0
  -10.1870   39.7640   17.1580 N   0  0  0  0  0
  -11.5100   39.7830   17.7770 C   0  0  0  0  0
  -12.4370   40.6120   17.1420 C   0  0  0  0  0
  -12.7060   40.4490   15.7790 C   0  0  0  0  0
  -13.4270   41.4020   15.1020 C   0  0  0  0  0
  -13.8940   42.5270   15.7650 C   0  0  0  0  0
  -13.6540   42.7010   17.1140 C   0  0  0  0  0
  -12.9320   41.7480   17.8050 C   0  0  0  0  0
  -11.9820   38.5000   18.0620 C   0  0  0  0  0
  -13.2130   38.0430   17.6180 C   0  0  0  0  0
  -13.5670   36.7070   17.7870 C   0  0  0  0  0
  -12.6920   35.8270   18.3990 C   0  0  0  0  0
  -11.4720   36.2840   18.8470 C   0  0  0  0  0
  -11.1260   37.6090   18.6800 C   0  0  0  0  0
   -8.1020   40.4520   16.7530 N   0  0  0  0  0
   -7.2430   39.2550   16.5650 C   0  0  0  0  0
   -7.2560   38.2220   17.4790 C   0  0  0  0  0
   -6.4310   37.1250   17.2950 C   0  0  0  0  0
   -5.5980   37.0630   16.1940 C   0  0  0  0  0
   -4.6970   35.8720   15.9680 C   0  0  0  0  0
   -4.0060   34.9580   15.8000 N   0  0  0  0  0
   -5.5960   38.0830   15.2910 C   0  0  0  0  0
   -6.4200   39.1790   15.4720 C   0  0  0  0  0
 22  1  1  0  0  0
 23  2  1  0  0  0
 23  3  1  0  0  0
 27  4  1  0  0  0
 28  5  1  0  0  0
 30  6  1  0  0  0
 31  7  1  0  0  0
 32  8  1  0  0  0
 33  9  1  0  0  0
 34 10  1  0  0  0
 36 11  1  0  0  0
 37 12  1  0  0  0
 38 13  1  0  0  0
 39 14  1  0  0  0
 40 15  1  0  0  0
 41 16  1  0  0  0
 43 17  1  0  0  0
 44 18  1  0  0  0
 48 19  1  0  0  0
 49 20  1  0  0  0
 21 22  1  0  0  0
 21 27  1  0  0  0
 41 21  1  0  0  0
 22 23  1  0  0  0
 23 24  1  0  0  0
 24 25  2  0  0  0
 24 26  1  0  0  0
 27 28  1  0  0  0
 28 29  1  0  0  0
 28 35  1  0  0  0
 29 30  4  0  0  0
 29 34  4  0  0  0
 30 31  4  0  0  0
 31 32  4  0  0  0
 33 32  4  0  0  0
 34 33  4  0  0  0
 35 36  4  0  0  0
 35 40  4  0  0  0
 36 37  4  0  0  0
 37 38  4  0  0  0
 39 38  4  0  0  0
 40 39  4  0  0  0
 42 41  1  0  0  0
 43 42  4  0  0  0
 42 49  4  0  0  0
 44 43  4  0  0  0
 45 44  4  0  0  0
 45 46  1  0  0  0
 45 48  4  0  0  0
 46 47  3  0  0  0
 48 49  4  0  0  0
M  END
$$$$
