### 
### Created by X-TOOL on Tue Oct 25 01:24:38 2005
### 

@<TRIPOS>MOLECULE
2cgr_ligand
   49    51     1     0     0
SMALL
GAST_HUCK


@<TRIPOS>ATOM
      1 H221      -10.3872   42.3217   17.3204 H         1 SUB1        0.203
      2 H231       -8.0731   43.2788   18.1426 H         1 SUB1        0.072
      3 H232       -8.2596   41.9598   19.3477 H         1 SUB1        0.072
      4 H271       -9.9758   38.9781   16.5266 H         1 SUB1        0.204
      5 H281      -11.3535   40.2503   18.7604 H         1 SUB1        0.086
      6 H301      -12.3453   39.5702   15.2569 H         1 SUB1        0.056
      7 H311      -13.6318   41.2743   14.0452 H         1 SUB1        0.060
      8 H321      -14.4534   43.2778   15.2187 H         1 SUB1        0.056
      9 H331      -14.0296   43.5792   17.6266 H         1 SUB1        0.060
     10 H341      -12.7459   41.8769   18.8651 H         1 SUB1        0.056
     11 H361      -13.9023   38.7279   17.1376 H         1 SUB1        0.056
     12 H371      -14.5311   36.3552   17.4380 H         1 SUB1        0.060
     13 H381      -12.9645   34.7854   18.5251 H         1 SUB1        0.056
     14 H391      -10.7830   35.6016   19.3314 H         1 SUB1        0.060
     15 H401      -10.1648   37.9574   19.0403 H         1 SUB1        0.056
     16 H411       -7.7063   41.3003   16.3233 H         1 SUB1        0.240
     17 H431       -7.9117   38.2688   18.3409 H         1 SUB1        0.055
     18 H441       -6.4386   36.3146   18.0149 H         1 SUB1        0.068
     19 H481       -4.9449   38.0354   14.4257 H         1 SUB1        0.068
     20 H491       -6.4147   39.9828   14.7447 H         1 SUB1        0.055
     21 C15        -9.2360   40.6660   17.3360 C.cat     1 SUB1        0.422
     22 N13        -9.5480   41.8890   17.7320 N.pl3     1 SUB1       -0.153
     23 C18        -8.7980   42.6710   18.7040 C.3       1 SUB1        0.090
     24 C19        -9.5590   43.6100   19.6140 C.2       1 SUB1        0.049
     25 O29        -8.9230   44.4930   20.2310 O.co2     1 SUB1       -0.565
     26 O39       -10.8020   43.6590   19.4680 O.co2     1 SUB1       -0.565
     27 N15       -10.1870   39.7640   17.1580 N.pl3     1 SUB1       -0.141
     28 C12       -11.5100   39.7830   17.7770 C.3       1 SUB1        0.129
     29 C23       -12.4370   40.6120   17.1420 C.ar      1 SUB1       -0.008
     30 C13       -12.7060   40.4490   15.7790 C.ar      1 SUB1       -0.056
     31 C63       -13.4270   41.4020   15.1020 C.ar      1 SUB1       -0.068
     32 C53       -13.8940   42.5270   15.7650 C.ar      1 SUB1       -0.068
     33 C43       -13.6540   42.7010   17.1140 C.ar      1 SUB1       -0.068
     34 C33       -12.9320   41.7480   17.8050 C.ar      1 SUB1       -0.056
     35 C61       -11.9820   38.5000   18.0620 C.ar      1 SUB1       -0.008
     36 C11       -13.2130   38.0430   17.6180 C.ar      1 SUB1       -0.056
     37 C21       -13.5670   36.7070   17.7870 C.ar      1 SUB1       -0.068
     38 C31       -12.6920   35.8270   18.3990 C.ar      1 SUB1       -0.068
     39 C41       -11.4720   36.2840   18.8470 C.ar      1 SUB1       -0.068
     40 C51       -11.1260   37.6090   18.6800 C.ar      1 SUB1       -0.056
     41 N16        -8.1020   40.4520   16.7530 N.pl3     1 SUB1       -0.109
     42 C46        -7.2430   39.2550   16.5650 C.ar      1 SUB1        0.097
     43 C36        -7.2560   38.2220   17.4790 C.ar      1 SUB1       -0.028
     44 C26        -6.4310   37.1250   17.2950 C.ar      1 SUB1       -0.038
     45 C16        -5.5980   37.0630   16.1940 C.ar      1 SUB1        0.081
     46 C17        -4.6970   35.8720   15.9680 C.1       1 SUB1        0.086
     47 N17        -4.0060   34.9580   15.8000 N.1       1 SUB1       -0.339
     48 C66        -5.5960   38.0830   15.2910 C.ar      1 SUB1       -0.038
     49 C56        -6.4200   39.1790   15.4720 C.ar      1 SUB1       -0.028
@<TRIPOS>BOND
     1   22    1 1  
     2   23    2 1  
     3   23    3 1  
     4   27    4 1  
     5   28    5 1  
     6   30    6 1  
     7   31    7 1  
     8   32    8 1  
     9   33    9 1  
    10   34   10 1  
    11   36   11 1  
    12   37   12 1  
    13   38   13 1  
    14   39   14 1  
    15   40   15 1  
    16   41   16 1  
    17   43   17 1  
    18   44   18 1  
    19   48   19 1  
    20   49   20 1  
    21   21   22 1  
    22   21   27 1  
    23   41   21 1  
    24   22   23 1  
    25   23   24 1  
    26   24   25 2  
    27   24   26 2  
    28   27   28 1  
    29   28   29 1  
    30   28   35 1  
    31   29   30 ar 
    32   29   34 ar 
    33   30   31 ar 
    34   31   32 ar 
    35   33   32 ar 
    36   34   33 ar 
    37   35   36 ar 
    38   35   40 ar 
    39   36   37 ar 
    40   37   38 ar 
    41   39   38 ar 
    42   40   39 ar 
    43   42   41 1  
    44   43   42 ar 
    45   42   49 ar 
    46   44   43 ar 
    47   45   44 ar 
    48   45   46 1  
    49   45   48 ar 
    50   46   47 3  
    51   48   49 ar 
@<TRIPOS>SUBSTRUCTURE
     1 SUB1        1 GROUP

