2j7b_ligand
  -I-interpret- 

 24 25  0  0  0  0  0  0  0  0999 V2000
   34.3030   24.4830   38.9730 C   0  0  0  0  0
   35.0210   23.4660   38.1460 C   0  0  0  0  0
   35.2650   24.0260   36.7490 C   0  0  0  0  0
   34.0460   24.8430   36.2670 C   0  0  0  0  0
   33.8810   26.1370   37.1030 C   0  0  0  0  0
   32.6400   26.9400   36.7370 C   0  0  0  0  0
   33.8200   25.6260   38.4860 N   0  0  0  0  0
   33.1480   26.3780   39.4370 N   0  0  0  0  0
   33.2300   25.6160   40.5920 N   0  0  0  0  0
   33.9810   24.4530   40.2830 N   0  0  0  0  0
   36.2560   23.0390   38.7230 O   0  0  0  0  0
   35.5150   22.9010   35.8850 O   0  0  0  0  0
   34.2130   25.2280   34.9140 O   0  0  0  0  0
   31.4470   26.1970   37.0270 O   0  0  0  0  0
   34.3808   22.5851   38.0977 H   0  0  0  0  0
   36.1167   24.7062   36.7442 H   0  0  0  0  0
   33.1671   24.2084   36.3806 H   0  0  0  0  0
   34.6923   26.8448   36.9328 H   0  0  0  0  0
   32.6661   27.1595   35.6697 H   0  0  0  0  0
   32.6317   27.8596   37.3221 H   0  0  0  0  0
   36.0930   22.6882   39.6016 H   0  0  0  0  0
   35.6896   23.2152   34.9949 H   0  0  0  0  0
   34.3180   24.4440   34.3700 H   0  0  0  0  0
   31.4184   25.9930   37.9647 H   0  0  0  0  0
  1  2  1  0  0  0
  1  7  1  0  0  0
  1 10  2  0  0  0
  2  3  1  0  0  0
  2 11  1  0  0  0
  3  4  1  0  0  0
  3 12  1  0  0  0
  4  5  1  0  0  0
  4 13  1  0  0  0
  5  6  1  0  0  0
  5  7  1  0  0  0
  6 14  1  0  0  0
  7  8  1  0  0  0
  8  9  2  0  0  0
  9 10  1  0  0  0
  2 15  1  0  0  0
  3 16  1  0  0  0
  4 17  1  0  0  0
  5 18  1  0  0  0
  6 19  1  0  0  0
  6 20  1  0  0  0
 11 21  1  0  0  0
 12 22  1  0  0  0
 13 23  1  0  0  0
 14 24  1  0  0  0
M  END
$$$$
