### 
### Created by X-TOOL on Sun Jun  3 11:31:59 2007
### 

@<TRIPOS>MOLECULE
2j7b_ligand
   24    25     1     0     0
SMALL
GAST_HUCK


@<TRIPOS>ATOM
      1 C1         34.3030   24.4830   38.9730 C.2       1 SUB1        0.198
      2 C2         35.0210   23.4660   38.1460 C.3       1 SUB1        0.169
      3 C3         35.2650   24.0260   36.7490 C.3       1 SUB1        0.128
      4 C4         34.0460   24.8430   36.2670 C.3       1 SUB1        0.121
      5 C5         33.8810   26.1370   37.1030 C.3       1 SUB1        0.145
      6 C6         32.6400   26.9400   36.7370 C.3       1 SUB1        0.080
      7 N1         33.8200   25.6260   38.4860 N.pl3     1 SUB1       -0.127
      8 N17        33.1480   26.3780   39.4370 N.2       1 SUB1       -0.070
      9 N18        33.2300   25.6160   40.5920 N.2       1 SUB1       -0.153
     10 N21        33.9810   24.4530   40.2830 N.2       1 SUB1       -0.220
     11 O2         36.2560   23.0390   38.7230 O.3       1 SUB1       -0.367
     12 O3         35.5150   22.9010   35.8850 O.3       1 SUB1       -0.384
     13 O4         34.2130   25.2280   34.9140 O.3       1 SUB1       -0.386
     14 O6         31.4470   26.1970   37.0270 O.3       1 SUB1       -0.392
     15 H          34.3808   22.5851   38.0977 H         1 SUB1        0.089
     16 H          36.1167   24.7062   36.7442 H         1 SUB1        0.068
     17 H          33.1671   24.2084   36.3806 H         1 SUB1        0.066
     18 H          34.6923   26.8448   36.9328 H         1 SUB1        0.073
     19 H          32.6661   27.1595   35.6697 H         1 SUB1        0.059
     20 H          32.6317   27.8596   37.3221 H         1 SUB1        0.059
     21 H          36.0930   22.6882   39.6016 H         1 SUB1        0.214
     22 H          35.6896   23.2152   34.9949 H         1 SUB1        0.210
     23 H          34.3180   24.4440   34.3700 H         1 SUB1        0.210
     24 H          31.4184   25.9930   37.9647 H         1 SUB1        0.209
@<TRIPOS>BOND
     1    1    2 1  
     2    1    7 1  
     3    1   10 2  
     4    2    3 1  
     5    2   11 1  
     6    3    4 1  
     7    3   12 1  
     8    4    5 1  
     9    4   13 1  
    10    5    6 1  
    11    5    7 1  
    12    6   14 1  
    13    7    8 1  
    14    8    9 2  
    15    9   10 1  
    16    2   15 1  
    17    3   16 1  
    18    4   17 1  
    19    5   18 1  
    20    6   19 1  
    21    6   20 1  
    22   11   21 1  
    23   12   22 1  
    24   13   23 1  
    25   14   24 1  
@<TRIPOS>SUBSTRUCTURE
     1 SUB1        1 GROUP

