### 
### Created by X-TOOL on Mon Oct 24 22:39:17 2005
### 

@<TRIPOS>MOLECULE
1tys_ligand
   34    35     1     0     0
SMALL
GAST_HUCK


@<TRIPOS>ATOM
      1 P          31.2330  -13.9030   31.1510 P.3       1 SUB1        0.205
      2 O1P        32.5300  -13.4540   31.6760 O.co2     1 SUB1       -0.535
      3 O2P        31.2950  -14.2760   29.6830 O.co2     1 SUB1       -0.535
      4 O3P        30.1550  -12.9350   31.3870 O.co2     1 SUB1       -0.535
      5 O5         30.8500  -15.2290   31.8560 O.3       1 SUB1       -0.320
      6 C5         30.6320  -15.4000   33.3100 C.3       1 SUB1        0.094
      7 C4         29.3170  -16.1720   33.4410 C.3       1 SUB1        0.115
      8 O4         29.2020  -16.6020   34.8250 O.3       1 SUB1       -0.339
      9 C3         28.0490  -15.3470   33.1710 C.3       1 SUB1        0.089
     10 O3         27.0060  -16.2800   32.9330 O.3       1 SUB1       -0.389
     11 C2         27.7970  -14.6490   34.5100 C.3       1 SUB1        0.031
     12 C1         28.4440  -15.5990   35.5210 C.3       1 SUB1        0.176
     13 N1         28.6700  -15.3910   36.9470 N.am      1 SUB1       -0.174
     14 C2         27.6420  -15.0620   37.8160 C.2       1 SUB1        0.326
     15 O2         26.4700  -14.9020   37.4600 O.2       1 SUB1       -0.384
     16 N3         28.0510  -14.8930   39.1300 N.am      1 SUB1       -0.186
     17 C4         29.3570  -15.0120   39.6000 C.2       1 SUB1        0.193
     18 O4         29.6300  -14.7940   40.7770 O.2       1 SUB1       -0.408
     19 C5         30.3580  -15.3550   38.6210 C.2       1 SUB1        0.023
     20 C5M        31.7710  -15.4700   39.0080 C.3       1 SUB1       -0.044
     21 C6         29.9500  -15.5310   37.3060 C.2       1 SUB1        0.052
     22 H61        30.5530  -14.4205   33.8043 H         1 SUB1        0.064
     23 H62        31.4587  -15.9711   33.7577 H         1 SUB1        0.064
     24 H71        29.3413  -17.0365   32.7613 H         1 SUB1        0.065
     25 H91        28.1637  -14.6370   32.3387 H         1 SUB1        0.062
     26 H101       26.8962  -16.8325   33.6980 H         1 SUB1        0.210
     27 H111       26.7195  -14.5408   34.7028 H         1 SUB1        0.034
     28 H112       28.2754  -13.6588   34.5358 H         1 SUB1        0.034
     29 H121       27.5390  -16.2023   35.6853 H         1 SUB1        0.096
     30 H161       27.3450  -14.6652   39.8006 H         1 SUB1        0.226
     31 H201       32.3720  -15.7373   38.1263 H         1 SUB1        0.030
     32 H202       31.8786  -16.2507   39.7754 H         1 SUB1        0.030
     33 H203       32.1201  -14.5082   39.4118 H         1 SUB1        0.030
     34 H211       30.6896  -15.7890   36.5495 H         1 SUB1        0.101
@<TRIPOS>BOND
     1    1    2 2  
     2    1    3 2  
     3    1    4 2  
     4    1    5 1  
     5    5    6 1  
     6    6    7 1  
     7    7    8 1  
     8    7    9 1  
     9    8   12 1  
    10    9   10 1  
    11    9   11 1  
    12   11   12 1  
    13   12   13 1  
    14   13   14 am 
    15   13   21 1  
    16   14   15 2  
    17   14   16 am 
    18   16   17 am 
    19   17   18 2  
    20   17   19 1  
    21   19   20 1  
    22   19   21 2  
    23    6   22 1  
    24    6   23 1  
    25    7   24 1  
    26    9   25 1  
    27   10   26 1  
    28   11   27 1  
    29   11   28 1  
    30   12   29 1  
    31   16   30 1  
    32   20   31 1  
    33   20   32 1  
    34   20   33 1  
    35   21   34 1  
@<TRIPOS>SUBSTRUCTURE
     1 SUB1        1 GROUP

