### 
### Created by X-TOOL on Mon Oct 24 22:47:11 2005
### 

@<TRIPOS>MOLECULE
1pz5_ligand
  124   126     1     0     0
SMALL
GAST_HUCK


@<TRIPOS>ATOM
      1 N          -9.9150   11.4370   34.7030 N.4       1 SUB1        0.238
      2 CA        -10.5560   12.7100   35.1390 C.3       1 SUB1        0.066
      3 C         -10.1580   13.8830   34.2500 C.2       1 SUB1        0.227
      4 O          -9.6660   13.6890   33.1380 O.2       1 SUB1       -0.391
      5 CB        -10.1790   13.0160   36.5880 C.3       1 SUB1        0.017
      6 CG         -8.6860   12.9780   36.8500 C.3       1 SUB1        0.001
      7 SD         -8.2860   13.5270   38.5130 S.3       1 SUB1       -0.164
      8 CE         -9.3450   12.4360   39.5010 C.3       1 SUB1       -0.018
      9 N         -10.3740   15.0980   34.7460 N.am      1 SUB1       -0.258
     10 CA        -10.0460   16.3030   33.9930 C.3       1 SUB1        0.142
     11 C          -8.8170   16.9720   34.5940 C.2       1 SUB1        0.207
     12 O          -8.6520   16.9920   35.8150 O.2       1 SUB1       -0.394
     13 CB        -11.2350   17.2640   34.0050 C.3       1 SUB1        0.027
     14 CG        -12.4850   16.6420   33.4110 C.2       1 SUB1        0.032
     15 OD1       -12.4310   16.1940   32.2480 O.co2     1 SUB1       -0.566
     16 OD2       -13.5240   16.6020   34.1040 O.co2     1 SUB1       -0.566
     17 N          -7.9570   17.5230   33.7420 N.am      1 SUB1       -0.262
     18 CA         -6.7350   18.1520   34.2270 C.3       1 SUB1        0.135
     19 C          -6.5590   19.6520   34.0130 C.2       1 SUB1        0.205
     20 O          -5.4320   20.1490   33.9650 O.2       1 SUB1       -0.394
     21 CB         -5.5180   17.4110   33.6700 C.3       1 SUB1        0.004
     22 CG         -5.4330   15.9980   34.1600 C.2       1 SUB1       -0.042
     23 CD1        -5.9020   14.8780   33.5360 C.2       1 SUB1        0.017
     24 CD2        -4.8760   15.5620   35.4040 C.ar      1 SUB1       -0.021
     25 NE1        -5.6690   13.7680   34.3150 N.pl3     1 SUB1       -0.289
     26 CE2        -5.0400   14.1610   35.4680 C.ar      1 SUB1        0.060
     27 CE3        -4.2540   16.2200   36.4730 C.ar      1 SUB1       -0.075
     28 CZ2        -4.6020   13.4060   36.5590 C.ar      1 SUB1       -0.044
     29 CZ3        -3.8190   15.4670   37.5570 C.ar      1 SUB1       -0.079
     30 CH2        -3.9950   14.0760   37.5900 C.ar      1 SUB1       -0.077
     31 N          -7.6670   20.3720   33.8840 N.am      1 SUB1       -0.262
     32 CA         -7.6220   21.8190   33.7260 C.3       1 SUB1        0.148
     33 C          -9.0070   22.3540   34.0700 C.2       1 SUB1        0.206
     34 O         -10.0000   21.6410   33.9460 O.2       1 SUB1       -0.394
     35 CB         -7.1940   22.2080   32.3010 C.3       1 SUB1        0.077
     36 CG         -8.2380   21.8870   31.2620 C.2       1 SUB1        0.178
     37 OD1        -9.2830   22.5320   31.1990 O.2       1 SUB1       -0.397
     38 ND2        -7.9640   20.8800   30.4410 N.am      1 SUB1       -0.301
     39 N          -9.0680   23.6030   34.5200 N.am      1 SUB1       -0.264
     40 CA        -10.3290   24.2050   34.9280 C.3       1 SUB1        0.132
     41 C         -11.4080   24.2900   33.8630 C.2       1 SUB1        0.204
     42 O         -12.5960   24.2590   34.1900 O.2       1 SUB1       -0.394
     43 CB        -10.0970   25.6070   35.4960 C.3       1 SUB1       -0.003
     44 CG         -9.1660   25.6490   36.6880 C.3       1 SUB1       -0.002
     45 SD         -9.3950   27.1720   37.6320 S.3       1 SUB1       -0.164
     46 CE        -11.0670   26.8970   38.3060 C.3       1 SUB1       -0.018
     47 N         -11.0140   24.4110   32.6010 N.am      1 SUB1       -0.262
     48 CA        -12.0000   24.5140   31.5340 C.3       1 SUB1        0.142
     49 C         -12.7730   23.2110   31.3720 C.2       1 SUB1        0.206
     50 O         -14.0000   23.2170   31.2220 O.2       1 SUB1       -0.394
     51 CB        -11.3290   24.9170   30.2140 C.3       1 SUB1        0.043
     52 CG        -12.2890   25.0670   29.0740 C.2       1 SUB1        0.056
     53 ND1       -12.7690   23.9910   28.3570 N.pl3     1 SUB1       -0.262
     54 CD2       -12.9120   26.1600   28.5710 C.2       1 SUB1       -0.028
     55 CE1       -13.6440   24.4150   27.4640 C.2       1 SUB1        0.087
     56 NE2       -13.7500   25.7270   27.5730 N.2       1 SUB1       -0.344
     57 N         -12.0530   22.0950   31.4220 N.am      1 SUB1       -0.264
     58 CA        -12.6650   20.7810   31.2900 C.3       1 SUB1        0.128
     59 C         -13.3970   20.4170   32.5800 C.2       1 SUB1        0.205
     60 O         -14.4120   19.7200   32.5500 O.2       1 SUB1       -0.394
     61 CB        -11.6020   19.7400   30.9860 C.3       1 SUB1       -0.024
     62 N         -12.8690   20.8910   33.7060 N.am      1 SUB1       -0.269
     63 CA        -13.4490   20.6230   35.0200 C.3       1 SUB1        0.079
     64 C         -14.8720   21.1550   35.1330 C.2       1 SUB1        0.053
     65 O         -15.7540   20.3800   35.5570 O.co2     1 SUB1       -0.564
     66 CB        -12.5760   21.2350   36.1100 C.3       1 SUB1       -0.030
     67 OXT       -15.0870   22.3410   34.8130 O.co2     1 SUB1       -0.564
     68 H11        -9.3158   11.6076   33.9107 H         1 SUB1        0.201
     69 H21       -11.6477   12.5952   35.0681 H         1 SUB1        0.110
     70 H51       -10.5398   14.0234   36.8425 H         1 SUB1        0.035
     71 H52       -10.6749   12.2853   37.2438 H         1 SUB1        0.035
     72 H61        -8.3230   11.9466   36.7302 H         1 SUB1        0.038
     73 H62        -8.1737   13.6214   36.1196 H         1 SUB1        0.038
     74 H81        -9.2035   12.6686   40.5668 H         1 SUB1        0.034
     75 H12       -10.6420   10.7746   34.4329 H         1 SUB1        0.201
     76 H82       -10.4004   12.5973   39.2363 H         1 SUB1        0.034
     77 H83        -9.0869   11.3848   39.3054 H         1 SUB1        0.034
     78 H91       -10.7717   15.1876   35.6591 H         1 SUB1        0.189
     79 H101       -9.8120   16.0297   32.9535 H         1 SUB1        0.084
     80 H131      -11.4554   17.5514   35.0436 H         1 SUB1        0.053
     81 H132      -10.9730   18.1675   33.4349 H         1 SUB1        0.053
     82 H171       -8.1504   17.5055   32.7610 H         1 SUB1        0.189
     83 H181       -6.7380   18.0198   35.3190 H         1 SUB1        0.082
     84 H211       -5.5821   17.3890   32.5721 H         1 SUB1        0.040
     85 H212       -4.6050   17.9509   33.9613 H         1 SUB1        0.040
     86 H231       -6.3899   14.8650   32.5625 H         1 SUB1        0.079
     87 H251       -5.9252   12.8005   34.0718 H         1 SUB1        0.222
     88 H271       -4.1148   17.2949   36.4550 H         1 SUB1        0.054
     89 H281       -4.7370   12.3309   36.5893 H         1 SUB1        0.054
     90 H291       -3.3356   15.9630   38.3909 H         1 SUB1        0.051
     91 H301       -3.6432   13.5178   38.4501 H         1 SUB1        0.053
     92 H311       -8.5536   19.9096   33.8956 H         1 SUB1        0.189
     93 H321       -6.9005   22.2450   34.4386 H         1 SUB1        0.083
     94 H351       -7.0046   23.2910   32.2685 H         1 SUB1        0.055
     95 H352       -6.2634   21.6774   32.0514 H         1 SUB1        0.055
     96 H381       -7.1025   20.3806   30.5324 H         1 SUB1        0.181
     97 H382       -8.6192   20.6210   29.7313 H         1 SUB1        0.181
     98 H391       -8.2278   24.1420   34.5797 H         1 SUB1        0.188
     99 H401      -10.7397   23.5714   35.7279 H         1 SUB1        0.080
    100 H431       -9.6591   26.2373   34.7080 H         1 SUB1        0.032
    101 H432      -11.0683   26.0309   35.7906 H         1 SUB1        0.032
    102 H441       -9.3762   24.7942   37.3476 H         1 SUB1        0.038
    103 H442       -8.1242   25.5819   36.3416 H         1 SUB1        0.038
    104 H461      -11.3544   27.7657   38.9165 H         1 SUB1        0.034
    105 H462      -11.7887   26.7825   37.4838 H         1 SUB1        0.034
    106 H463      -11.0791   25.9833   38.9183 H         1 SUB1        0.034
    107 H471      -10.0384   24.4315   32.3826 H         1 SUB1        0.189
    108 H481      -12.7271   25.2928   31.8073 H         1 SUB1        0.082
    109 H511      -10.8203   25.8820   30.3553 H         1 SUB1        0.049
    110 H512      -10.5795   24.1559   29.9516 H         1 SUB1        0.049
    111 H531      -12.4886   23.0098   28.4965 H         1 SUB1        0.239
    112 H541      -12.7739   27.1898   28.8973 H         1 SUB1        0.032
    113 H551      -14.1865   23.7890   26.7571 H         1 SUB1        0.115
    114 H571      -11.0639   22.1598   31.5539 H         1 SUB1        0.188
    115 H581      -13.3994   20.8016   30.4714 H         1 SUB1        0.080
    116 H611      -11.0896   20.0136   30.0519 H         1 SUB1        0.028
    117 H612      -10.8653   19.7068   31.8021 H         1 SUB1        0.028
    118 H613      -12.0662   18.7477   30.8866 H         1 SUB1        0.028
    119 H621      -12.0433   21.4524   33.6506 H         1 SUB1        0.190
    120 H631      -13.4922   19.5338   35.1674 H         1 SUB1        0.077
    121 H661      -11.5671   20.8013   36.0464 H         1 SUB1        0.029
    122 H662      -12.5074   22.3237   35.9685 H         1 SUB1        0.029
    123 H663      -13.0135   21.0327   37.0988 H         1 SUB1        0.029
    124 H13        -9.3605   11.0565   35.4538 H         1 SUB1        0.201
@<TRIPOS>BOND
     1    2    1 1  
     2    2    5 1  
     3    3    2 1  
     4    3    4 2  
     5    5    6 1  
     6    6    7 1  
     7    7    8 1  
     8   10    9 1  
     9   10   13 1  
    10   11   10 1  
    11   11   12 2  
    12   13   14 1  
    13   14   15 2  
    14   14   16 2  
    15    9    3 am 
    16   18   17 1  
    17   18   21 1  
    18   19   18 1  
    19   19   20 2  
    20   21   22 1  
    21   22   23 2  
    22   22   24 1  
    23   24   27 ar 
    24   24   26 ar 
    25   26   28 ar 
    26   26   25 1  
    27   23   25 1  
    28   28   30 ar 
    29   29   30 ar 
    30   27   29 ar 
    31   17   11 am 
    32   32   31 1  
    33   32   35 1  
    34   33   32 1  
    35   33   34 2  
    36   35   36 1  
    37   36   38 am 
    38   36   37 2  
    39   31   19 am 
    40   40   39 1  
    41   40   43 1  
    42   41   40 1  
    43   41   42 2  
    44   43   44 1  
    45   44   45 1  
    46   45   46 1  
    47   39   33 am 
    48   48   47 1  
    49   48   51 1  
    50   49   48 1  
    51   49   50 2  
    52   51   52 1  
    53   52   53 1  
    54   52   54 2  
    55   54   56 1  
    56   56   55 2  
    57   53   55 1  
    58   47   41 am 
    59   58   57 1  
    60   58   61 1  
    61   59   58 1  
    62   59   60 2  
    63   57   49 am 
    64   62   63 1  
    65   63   66 1  
    66   63   64 1  
    67   64   65 2  
    68   64   67 2  
    69   59   62 am 
    70    1   75 1  
    71    1   68 1  
    72    2   69 1  
    73    5   70 1  
    74    5   71 1  
    75    6   72 1  
    76    6   73 1  
    77    8   74 1  
    78    8   76 1  
    79    8   77 1  
    80    9   78 1  
    81   10   79 1  
    82   13   80 1  
    83   13   81 1  
    84   17   82 1  
    85   18   83 1  
    86   21   84 1  
    87   21   85 1  
    88   23   86 1  
    89   25   87 1  
    90   27   88 1  
    91   28   89 1  
    92   29   90 1  
    93   30   91 1  
    94   31   92 1  
    95   32   93 1  
    96   35   94 1  
    97   35   95 1  
    98   38   96 1  
    99   38   97 1  
   100   39   98 1  
   101   40   99 1  
   102   43  100 1  
   103   43  101 1  
   104   44  102 1  
   105   44  103 1  
   106   46  104 1  
   107   46  105 1  
   108   46  106 1  
   109   47  107 1  
   110   48  108 1  
   111   51  109 1  
   112   51  110 1  
   113   53  111 1  
   114   54  112 1  
   115   55  113 1  
   116   57  114 1  
   117   58  115 1  
   118   61  116 1  
   119   61  117 1  
   120   61  118 1  
   121   62  119 1  
   122   63  120 1  
   123   66  121 1  
   124   66  122 1  
   125   66  123 1  
   126    1  124 1  
@<TRIPOS>SUBSTRUCTURE
     1 SUB1        1 GROUP

