1pz5_ligand
  -I-interpret- 

124126  0  0  0  0  0  0  0  0999 V2000
   -9.9150   11.4370   34.7030 N   0  3  0  0  0
  -10.5560   12.7100   35.1390 C   0  0  0  0  0
  -10.1580   13.8830   34.2500 C   0  0  0  0  0
   -9.6660   13.6890   33.1380 O   0  0  0  0  0
  -10.1790   13.0160   36.5880 C   0  0  0  0  0
   -8.6860   12.9780   36.8500 C   0  0  0  0  0
   -8.2860   13.5270   38.5130 S   0  0  0  0  0
   -9.3450   12.4360   39.5010 C   0  0  0  0  0
  -10.3740   15.0980   34.7460 N   0  0  0  0  0
  -10.0460   16.3030   33.9930 C   0  0  0  0  0
   -8.8170   16.9720   34.5940 C   0  0  0  0  0
   -8.6520   16.9920   35.8150 O   0  0  0  0  0
  -11.2350   17.2640   34.0050 C   0  0  0  0  0
  -12.4850   16.6420   33.4110 C   0  0  0  0  0
  -12.4310   16.1940   32.2480 O   0  0  0  0  0
  -13.5240   16.6020   34.1040 O   0  5  0  0  0
   -7.9570   17.5230   33.7420 N   0  0  0  0  0
   -6.7350   18.1520   34.2270 C   0  0  0  0  0
   -6.5590   19.6520   34.0130 C   0  0  0  0  0
   -5.4320   20.1490   33.9650 O   0  0  0  0  0
   -5.5180   17.4110   33.6700 C   0  0  0  0  0
   -5.4330   15.9980   34.1600 C   0  0  0  0  0
   -5.9020   14.8780   33.5360 C   0  0  0  0  0
   -4.8760   15.5620   35.4040 C   0  0  0  0  0
   -5.6690   13.7680   34.3150 N   0  0  0  0  0
   -5.0400   14.1610   35.4680 C   0  0  0  0  0
   -4.2540   16.2200   36.4730 C   0  0  0  0  0
   -4.6020   13.4060   36.5590 C   0  0  0  0  0
   -3.8190   15.4670   37.5570 C   0  0  0  0  0
   -3.9950   14.0760   37.5900 C   0  0  0  0  0
   -7.6670   20.3720   33.8840 N   0  0  0  0  0
   -7.6220   21.8190   33.7260 C   0  0  0  0  0
   -9.0070   22.3540   34.0700 C   0  0  0  0  0
  -10.0000   21.6410   33.9460 O   0  0  0  0  0
   -7.1940   22.2080   32.3010 C   0  0  0  0  0
   -8.2380   21.8870   31.2620 C   0  0  0  0  0
   -9.2830   22.5320   31.1990 O   0  0  0  0  0
   -7.9640   20.8800   30.4410 N   0  0  0  0  0
   -9.0680   23.6030   34.5200 N   0  0  0  0  0
  -10.3290   24.2050   34.9280 C   0  0  0  0  0
  -11.4080   24.2900   33.8630 C   0  0  0  0  0
  -12.5960   24.2590   34.1900 O   0  0  0  0  0
  -10.0970   25.6070   35.4960 C   0  0  0  0  0
   -9.1660   25.6490   36.6880 C   0  0  0  0  0
   -9.3950   27.1720   37.6320 S   0  0  0  0  0
  -11.0670   26.8970   38.3060 C   0  0  0  0  0
  -11.0140   24.4110   32.6010 N   0  0  0  0  0
  -12.0000   24.5140   31.5340 C   0  0  0  0  0
  -12.7730   23.2110   31.3720 C   0  0  0  0  0
  -14.0000   23.2170   31.2220 O   0  0  0  0  0
  -11.3290   24.9170   30.2140 C   0  0  0  0  0
  -12.2890   25.0670   29.0740 C   0  0  0  0  0
  -12.7690   23.9910   28.3570 N   0  0  0  0  0
  -12.9120   26.1600   28.5710 C   0  0  0  0  0
  -13.6440   24.4150   27.4640 C   0  0  0  0  0
  -13.7500   25.7270   27.5730 N   0  0  0  0  0
  -12.0530   22.0950   31.4220 N   0  0  0  0  0
  -12.6650   20.7810   31.2900 C   0  0  0  0  0
  -13.3970   20.4170   32.5800 C   0  0  0  0  0
  -14.4120   19.7200   32.5500 O   0  0  0  0  0
  -11.6020   19.7400   30.9860 C   0  0  0  0  0
  -12.8690   20.8910   33.7060 N   0  0  0  0  0
  -13.4490   20.6230   35.0200 C   0  0  0  0  0
  -14.8720   21.1550   35.1330 C   0  0  0  0  0
  -15.7540   20.3800   35.5570 O   0  5  0  0  0
  -12.5760   21.2350   36.1100 C   0  0  0  0  0
  -15.0870   22.3410   34.8130 O   0  0  0  0  0
   -9.3158   11.6076   33.9107 H   0  0  0  0  0
  -11.6477   12.5952   35.0681 H   0  0  0  0  0
  -10.5398   14.0234   36.8425 H   0  0  0  0  0
  -10.6749   12.2853   37.2438 H   0  0  0  0  0
   -8.3230   11.9466   36.7302 H   0  0  0  0  0
   -8.1737   13.6214   36.1196 H   0  0  0  0  0
   -9.2035   12.6686   40.5668 H   0  0  0  0  0
  -10.6420   10.7746   34.4329 H   0  0  0  0  0
  -10.4004   12.5973   39.2363 H   0  0  0  0  0
   -9.0869   11.3848   39.3054 H   0  0  0  0  0
  -10.7717   15.1876   35.6591 H   0  0  0  0  0
   -9.8120   16.0297   32.9535 H   0  0  0  0  0
  -11.4554   17.5514   35.0436 H   0  0  0  0  0
  -10.9730   18.1675   33.4349 H   0  0  0  0  0
   -8.1504   17.5055   32.7610 H   0  0  0  0  0
   -6.7380   18.0198   35.3190 H   0  0  0  0  0
   -5.5821   17.3890   32.5721 H   0  0  0  0  0
   -4.6050   17.9509   33.9613 H   0  0  0  0  0
   -6.3899   14.8650   32.5625 H   0  0  0  0  0
   -5.9252   12.8005   34.0718 H   0  0  0  0  0
   -4.1148   17.2949   36.4550 H   0  0  0  0  0
   -4.7370   12.3309   36.5893 H   0  0  0  0  0
   -3.3356   15.9630   38.3909 H   0  0  0  0  0
   -3.6432   13.5178   38.4501 H   0  0  0  0  0
   -8.5536   19.9096   33.8956 H   0  0  0  0  0
   -6.9005   22.2450   34.4386 H   0  0  0  0  0
   -7.0046   23.2910   32.2685 H   0  0  0  0  0
   -6.2634   21.6774   32.0514 H   0  0  0  0  0
   -7.1025   20.3806   30.5324 H   0  0  0  0  0
   -8.6192   20.6210   29.7313 H   0  0  0  0  0
   -8.2278   24.1420   34.5797 H   0  0  0  0  0
  -10.7397   23.5714   35.7279 H   0  0  0  0  0
   -9.6591   26.2373   34.7080 H   0  0  0  0  0
  -11.0683   26.0309   35.7906 H   0  0  0  0  0
   -9.3762   24.7942   37.3476 H   0  0  0  0  0
   -8.1242   25.5819   36.3416 H   0  0  0  0  0
  -11.3544   27.7657   38.9165 H   0  0  0  0  0
  -11.7887   26.7825   37.4838 H   0  0  0  0  0
  -11.0791   25.9833   38.9183 H   0  0  0  0  0
  -10.0384   24.4315   32.3826 H   0  0  0  0  0
  -12.7271   25.2928   31.8073 H   0  0  0  0  0
  -10.8203   25.8820   30.3553 H   0  0  0  0  0
  -10.5795   24.1559   29.9516 H   0  0  0  0  0
  -12.4886   23.0098   28.4965 H   0  0  0  0  0
  -12.7739   27.1898   28.8973 H   0  0  0  0  0
  -14.1865   23.7890   26.7571 H   0  0  0  0  0
  -11.0639   22.1598   31.5539 H   0  0  0  0  0
  -13.3994   20.8016   30.4714 H   0  0  0  0  0
  -11.0896   20.0136   30.0519 H   0  0  0  0  0
  -10.8653   19.7068   31.8021 H   0  0  0  0  0
  -12.0662   18.7477   30.8866 H   0  0  0  0  0
  -12.0433   21.4524   33.6506 H   0  0  0  0  0
  -13.4922   19.5338   35.1674 H   0  0  0  0  0
  -11.5671   20.8013   36.0464 H   0  0  0  0  0
  -12.5074   22.3237   35.9685 H   0  0  0  0  0
  -13.0135   21.0327   37.0988 H   0  0  0  0  0
   -9.3605   11.0565   35.4538 H   0  0  0  0  0
  2  1  1  0  0  0
  2  5  1  0  0  0
  3  2  1  0  0  0
  3  4  2  0  0  0
  5  6  1  0  0  0
  6  7  1  0  0  0
  7  8  1  0  0  0
 10  9  1  0  0  0
 10 13  1  0  0  0
 11 10  1  0  0  0
 11 12  2  0  0  0
 13 14  1  0  0  0
 14 15  2  0  0  0
 14 16  1  0  0  0
  9  3  1  0  0  0
 18 17  1  0  0  0
 18 21  1  0  0  0
 19 18  1  0  0  0
 19 20  2  0  0  0
 21 22  1  0  0  0
 22 23  2  0  0  0
 22 24  1  0  0  0
 24 27  4  0  0  0
 24 26  4  0  0  0
 26 28  4  0  0  0
 26 25  1  0  0  0
 23 25  1  0  0  0
 28 30  4  0  0  0
 29 30  4  0  0  0
 27 29  4  0  0  0
 17 11  1  0  0  0
 32 31  1  0  0  0
 32 35  1  0  0  0
 33 32  1  0  0  0
 33 34  2  0  0  0
 35 36  1  0  0  0
 36 38  1  0  0  0
 36 37  2  0  0  0
 31 19  1  0  0  0
 40 39  1  0  0  0
 40 43  1  0  0  0
 41 40  1  0  0  0
 41 42  2  0  0  0
 43 44  1  0  0  0
 44 45  1  0  0  0
 45 46  1  0  0  0
 39 33  1  0  0  0
 48 47  1  0  0  0
 48 51  1  0  0  0
 49 48  1  0  0  0
 49 50  2  0  0  0
 51 52  1  0  0  0
 52 53  1  0  0  0
 52 54  2  0  0  0
 54 56  1  0  0  0
 56 55  2  0  0  0
 53 55  1  0  0  0
 47 41  1  0  0  0
 58 57  1  0  0  0
 58 61  1  0  0  0
 59 58  1  0  0  0
 59 60  2  0  0  0
 57 49  1  0  0  0
 62 63  1  0  0  0
 63 66  1  0  0  0
 63 64  1  0  0  0
 64 65  1  0  0  0
 64 67  2  0  0  0
 59 62  1  0  0  0
  1 75  1  0  0  0
  1 68  1  0  0  0
  2 69  1  0  0  0
  5 70  1  0  0  0
  5 71  1  0  0  0
  6 72  1  0  0  0
  6 73  1  0  0  0
  8 74  1  0  0  0
  8 76  1  0  0  0
  8 77  1  0  0  0
  9 78  1  0  0  0
 10 79  1  0  0  0
 13 80  1  0  0  0
 13 81  1  0  0  0
 17 82  1  0  0  0
 18 83  1  0  0  0
 21 84  1  0  0  0
 21 85  1  0  0  0
 23 86  1  0  0  0
 25 87  1  0  0  0
 27 88  1  0  0  0
 28 89  1  0  0  0
 29 90  1  0  0  0
 30 91  1  0  0  0
 31 92  1  0  0  0
 32 93  1  0  0  0
 35 94  1  0  0  0
 35 95  1  0  0  0
 38 96  1  0  0  0
 38 97  1  0  0  0
 39 98  1  0  0  0
 40 99  1  0  0  0
 43100  1  0  0  0
 43101  1  0  0  0
 44102  1  0  0  0
 44103  1  0  0  0
 46104  1  0  0  0
 46105  1  0  0  0
 46106  1  0  0  0
 47107  1  0  0  0
 48108  1  0  0  0
 51109  1  0  0  0
 51110  1  0  0  0
 53111  1  0  0  0
 54112  1  0  0  0
 55113  1  0  0  0
 57114  1  0  0  0
 58115  1  0  0  0
 61116  1  0  0  0
 61117  1  0  0  0
 61118  1  0  0  0
 62119  1  0  0  0
 63120  1  0  0  0
 66121  1  0  0  0
 66122  1  0  0  0
 66123  1  0  0  0
  1124  1  0  0  0
M  END
$$$$
