### 
### Created by X-TOOL on Tue Oct 25 00:24:54 2005
### 

@<TRIPOS>MOLECULE
3pce_ligand
   18    18     1     0     0
SMALL
GAST_HUCK


@<TRIPOS>ATOM
      1 H81        13.1874   13.3002   40.2182 H         1 SUB1        0.065
      2 H82        12.2238   12.7839   41.6435 H         1 SUB1        0.065
      3 H101       13.2626   10.7439   43.0947 H         1 SUB1        0.048
      4 H121       15.5199    8.0398   40.5922 H         1 SUB1        0.049
      5 C8         13.9860   13.9130   42.1120 C.2       1 SUB1        0.038
      6 O1         13.3360   14.2050   43.1800 O.co2     1 SUB1       -0.565
      7 O2         15.0540   14.4680   41.7220 O.co2     1 SUB1       -0.565
      8 C7         13.2410   12.8990   41.2410 C.3       1 SUB1        0.017
      9 C1         13.8750   11.5390   41.1770 C.ar      1 SUB1       -0.038
     10 C2         13.7870   10.5500   42.1660 C.ar      1 SUB1       -0.030
     11 C3         14.3950    9.2930   41.9310 C.ar      1 SUB1        0.081
     12 C4         15.0840    9.0190   40.7540 C.ar      1 SUB1       -0.040
     13 C5         15.2080    9.9960   39.8000 C.ar      1 SUB1       -0.076
     14 C6         14.5780   11.2600   39.9960 C.ar      1 SUB1       -0.068
     15 O3         14.3280    8.3260   42.8930 O.3       1 SUB1       -0.335
     16 H131       15.7827    9.8082   38.9003 H         1 SUB1        0.057
     17 H141       14.6433   12.0157   39.2216 H         1 SUB1        0.047
     18 H151       14.7788    7.5469   42.5892 H         1 SUB1        0.248
@<TRIPOS>BOND
     1    8    1 1  
     2    8    2 1  
     3   10    3 1  
     4    8    5 1  
     5    5    7 2  
     6    5    6 2  
     7    9    8 1  
     8    9   14 ar 
     9    9   10 ar 
    10   10   11 ar 
    11   11   15 1  
    12   11   12 ar 
    13   12   13 ar 
    14   13   14 ar 
    15   12    4 1  
    16   13   16 1  
    17   14   17 1  
    18   15   18 1  
@<TRIPOS>SUBSTRUCTURE
     1 SUB1        1 GROUP

