3pce_ligand
  -I-interpret- 

 18 18  0  0  0  0  0  0  0  0999 V2000
   13.1874   13.3002   40.2182 H   0  0  0  0  0
   12.2238   12.7839   41.6435 H   0  0  0  0  0
   13.2626   10.7439   43.0947 H   0  0  0  0  0
   15.5199    8.0398   40.5922 H   0  0  0  0  0
   13.9860   13.9130   42.1120 C   0  0  0  0  0
   13.3360   14.2050   43.1800 O   0  5  0  0  0
   15.0540   14.4680   41.7220 O   0  0  0  0  0
   13.2410   12.8990   41.2410 C   0  0  0  0  0
   13.8750   11.5390   41.1770 C   0  0  0  0  0
   13.7870   10.5500   42.1660 C   0  0  0  0  0
   14.3950    9.2930   41.9310 C   0  0  0  0  0
   15.0840    9.0190   40.7540 C   0  0  0  0  0
   15.2080    9.9960   39.8000 C   0  0  0  0  0
   14.5780   11.2600   39.9960 C   0  0  0  0  0
   14.3280    8.3260   42.8930 O   0  0  0  0  0
   15.7827    9.8082   38.9003 H   0  0  0  0  0
   14.6433   12.0157   39.2216 H   0  0  0  0  0
   14.7788    7.5469   42.5892 H   0  0  0  0  0
  8  1  1  0  0  0
  8  2  1  0  0  0
 10  3  1  0  0  0
  8  5  1  0  0  0
  5  7  2  0  0  0
  5  6  1  0  0  0
  9  8  1  0  0  0
  9 14  4  0  0  0
  9 10  4  0  0  0
 10 11  4  0  0  0
 11 15  1  0  0  0
 11 12  4  0  0  0
 12 13  4  0  0  0
 13 14  4  0  0  0
 12  4  1  0  0  0
 13 16  1  0  0  0
 14 17  1  0  0  0
 15 18  1  0  0  0
M  END
$$$$
