### 
### Created by X-TOOL on Tue Oct 25 01:27:00 2005
### 

@<TRIPOS>MOLECULE
1k1m_ligand
   66    69     1     0     0
SMALL
GAST_HUCK


@<TRIPOS>ATOM
      1 H71        -4.7771    7.0707   20.5099 H         1 SUB1        0.060
      2 H81        -1.3996    4.4929   19.8494 H         1 SUB1        0.056
      3 H91        -0.0518    6.4409   19.1161 H         1 SUB1        0.060
      4 H101       -1.0676    8.7120   19.0452 H         1 SUB1        0.061
      5 H131       -3.3806   11.3776   19.2390 H         1 SUB1        0.192
      6 C65        -3.1730    5.6540   20.2490 C.ar      1 SUB1       -0.034
      7 C66        -3.7450    6.9360   20.2070 C.ar      1 SUB1       -0.005
      8 C64        -1.8430    5.4820   19.8390 C.ar      1 SUB1       -0.060
      9 C63        -1.0840    6.5810   19.4160 C.ar      1 SUB1       -0.064
     10 C62        -1.6560    7.8650   19.3790 C.ar      1 SUB1       -0.014
     11 C61        -2.9970    8.0490   19.7770 C.ar      1 SUB1        0.179
     12 C25        -3.6340    9.4260   19.7420 C.cat     1 SUB1        0.315
     13 N43        -2.9550   10.4400   19.2660 N.pl3     1 SUB1       -0.200
     14 N54        -4.8630    9.5760   20.1840 N.pl3     1 SUB1       -0.200
     15 C34        -3.9970    4.4420   20.7130 C.3       1 SUB1        0.018
     16 C31        -3.9400    4.2160   22.2590 C.3       1 SUB1        0.136
     17 C35        -2.6100    4.6180   22.8620 C.2       1 SUB1        0.202
     18 O36        -2.5170    5.8040   23.1540 O.2       1 SUB1       -0.395
     19 N81        -1.5750    3.7580   23.0680 N.am      1 SUB1       -0.268
     20 C71        -1.5450    2.4380   22.4400 C.3       1 SUB1        0.054
     21 C72        -1.1290    1.4750   23.5690 C.3       1 SUB1        0.054
     22 C74         0.1600    3.3960   24.6590 C.3       1 SUB1        0.054
     23 C75        -0.2940    4.3020   23.4970 C.3       1 SUB1        0.054
     24 N40        -0.0020    1.9730   24.3640 N.am      1 SUB1       -0.270
     25 N29        -5.0150    4.9480   22.9320 N.am      1 SUB1       -0.223
     26 S12        -5.8890    4.2530   24.2530 S.o2      1 SUB1        0.071
     27 O32        -6.9290    5.1660   24.6370 O.2       1 SUB1       -0.150
     28 O33        -6.2180    2.8790   23.9270 O.2       1 SUB1       -0.150
     29 C2         -4.6560    4.2900   25.4950 C.ar      1 SUB1        0.109
     30 C3         -4.3000    5.5150   26.0860 C.ar      1 SUB1       -0.034
     31 C4         -3.3270    5.5790   27.0850 C.ar      1 SUB1       -0.052
     32 C9         -3.0350    3.1740   26.9510 C.ar      1 SUB1       -0.016
     33 C10        -2.6930    4.4190   27.5220 C.ar      1 SUB1       -0.018
     34 C1         -4.0290    3.1110   25.9330 C.ar      1 SUB1       -0.027
     35 C5         -1.7280    4.4860   28.5210 C.ar      1 SUB1       -0.054
     36 C6         -1.0640    3.3260   28.9270 C.ar      1 SUB1       -0.061
     37 C7         -1.4180    2.0830   28.3780 C.ar      1 SUB1       -0.061
     38 C8         -2.4000    2.0060   27.3840 C.ar      1 SUB1       -0.054
     39 C48         0.9320    1.0670   24.7960 C.2       1 SUB1        0.176
     40 O49         1.8470    1.3940   25.5380 O.2       1 SUB1       -0.397
     41 C55         0.8910   -0.3950   24.4080 C.3       1 SUB1        0.026
     42 H132       -1.9955   10.2998   18.9187 H         1 SUB1        0.192
     43 H141       -5.3796    8.7655   20.5544 H         1 SUB1        0.192
     44 H142       -5.3093   10.5040   20.1599 H         1 SUB1        0.192
     45 H151       -3.6081    3.5425   20.2134 H         1 SUB1        0.047
     46 H152       -5.0457    4.5993   20.4209 H         1 SUB1        0.047
     47 H161       -4.0847    3.1414   22.4440 H         1 SUB1        0.078
     48 H201       -0.8111    2.4150   21.6209 H         1 SUB1        0.054
     49 H202       -2.5384    2.1717   22.0499 H         1 SUB1        0.054
     50 H211       -0.8425    0.5124   23.1202 H         1 SUB1        0.054
     51 H212       -1.9900    1.3262   24.2372 H         1 SUB1        0.054
     52 H221        1.2224    3.5937   24.8645 H         1 SUB1        0.054
     53 H222       -0.4375    3.6407   25.5496 H         1 SUB1        0.054
     54 H231       -0.4112    5.3404   23.8404 H         1 SUB1        0.054
     55 H232        0.4348    4.2681   22.6738 H         1 SUB1        0.054
     56 H251       -5.2488    5.8693   22.6213 H         1 SUB1        0.171
     57 H301       -4.7896    6.4257   25.7603 H         1 SUB1        0.064
     58 H311       -3.0641    6.5355   27.5222 H         1 SUB1        0.062
     59 H341       -4.3011    2.1564   25.4973 H         1 SUB1        0.064
     60 H351       -1.4913    5.4371   28.9841 H         1 SUB1        0.062
     61 H361       -0.2742    3.3855   29.6671 H         1 SUB1        0.062
     62 H371       -0.9290    1.1801   28.7253 H         1 SUB1        0.062
     63 H381       -2.6664    1.0478   26.9529 H         1 SUB1        0.062
     64 H411        1.7380   -0.9214   24.8723 H         1 SUB1        0.047
     65 H412        0.9580   -0.4860   23.3138 H         1 SUB1        0.047
     66 H413       -0.0527   -0.8404   24.7559 H         1 SUB1        0.047
@<TRIPOS>BOND
     1    7    1 1  
     2    8    2 1  
     3    9    3 1  
     4   10    4 1  
     5    6   15 1  
     6    6    8 ar 
     7    7    6 ar 
     8   11    7 ar 
     9   11   12 1  
    10   10   11 ar 
    11   10    9 ar 
    12    9    8 ar 
    13   12   14 1  
    14   12   13 1  
    15   15   16 1  
    16   16   25 1  
    17   16   17 1  
    18   17   19 am 
    19   17   18 2  
    20   19   23 1  
    21   19   20 1  
    22   20   21 1  
    23   21   24 1  
    24   24   22 1  
    25   24   39 am 
    26   39   41 1  
    27   39   40 2  
    28   22   23 1  
    29   25   26 1  
    30   26   29 1  
    31   26   28 2  
    32   26   27 2  
    33   29   34 ar 
    34   29   30 ar 
    35   30   31 ar 
    36   31   33 ar 
    37   33   32 ar 
    38   33   35 ar 
    39   35   36 ar 
    40   36   37 ar 
    41   37   38 ar 
    42   38   32 ar 
    43   32   34 ar 
    44   13    5 1  
    45   13   42 1  
    46   14   43 1  
    47   14   44 1  
    48   15   45 1  
    49   15   46 1  
    50   16   47 1  
    51   20   48 1  
    52   20   49 1  
    53   21   50 1  
    54   21   51 1  
    55   22   52 1  
    56   22   53 1  
    57   23   54 1  
    58   23   55 1  
    59   25   56 1  
    60   30   57 1  
    61   31   58 1  
    62   34   59 1  
    63   35   60 1  
    64   36   61 1  
    65   37   62 1  
    66   38   63 1  
    67   41   64 1  
    68   41   65 1  
    69   41   66 1  
@<TRIPOS>SUBSTRUCTURE
     1 SUB1        1 GROUP

