### 
### Created by X-TOOL on Mon Oct 24 22:48:03 2005
### 

@<TRIPOS>MOLECULE
1xff_ligand
   18    17     1     0     0
SMALL
GAST_HUCK


@<TRIPOS>ATOM
      1 N           6.4050   30.7060   29.8130 N.4       1 SUB1        0.238
      2 CA          5.5520   30.4970   28.5940 C.3       1 SUB1        0.018
      3 C           4.9540   29.1030   28.5460 C.2       1 SUB1        0.076
      4 O           4.0110   28.8530   27.7710 O.co2     1 SUB1       -0.561
      5 CB          6.3450   30.7490   27.3220 C.3       1 SUB1        0.013
      6 CG          7.5250   29.8070   27.0560 C.3       1 SUB1       -0.006
      7 CD          8.1800   30.1280   25.7280 C.2       1 SUB1        0.028
      8 OE1         8.8920   31.1610   25.6620 O.co2     1 SUB1       -0.567
      9 OE2         8.0170   29.3580   24.7530 O.co2     1 SUB1       -0.567
     10 OXT         5.4220   28.2370   29.3110 O.co2     1 SUB1       -0.561
     11 H11         6.7804   31.6415   29.8040 H         1 SUB1        0.202
     12 H12         7.1619   30.0403   29.8117 H         1 SUB1        0.202
     13 H13         5.8451   30.5766   30.6411 H         1 SUB1        0.202
     14 H21         4.7256   31.2218   28.6349 H         1 SUB1        0.107
     15 H51         6.7401   31.7744   27.3716 H         1 SUB1        0.039
     16 H52         5.6511   30.6641   26.4727 H         1 SUB1        0.039
     17 H61         7.1610   28.7692   27.0371 H         1 SUB1        0.049
     18 H62         8.2662   29.9211   27.8607 H         1 SUB1        0.049
@<TRIPOS>BOND
     1    1    2 1  
     2    2    3 1  
     3    2    5 1  
     4    3    4 2  
     5    3   10 2  
     6    5    6 1  
     7    6    7 1  
     8    7    8 2  
     9    7    9 2  
    10    1   11 1  
    11    1   12 1  
    12    1   13 1  
    13    2   14 1  
    14    5   15 1  
    15    5   16 1  
    16    6   17 1  
    17    6   18 1  
@<TRIPOS>SUBSTRUCTURE
     1 SUB1        1 GROUP

