2ca8_ligand
  -I-interpret- 

 36 35  0  0  0  0  0  0  0  0999 V2000
    3.0620   13.7770   43.1150 O   0  5  0  0  0
    2.4810   12.6830   43.3080 C   0  0  0  0  0
    1.3950   12.4470   42.7320 O   0  0  0  0  0
    2.9750   11.5810   44.2050 C   0  0  0  0  0
    2.3080   11.7480   45.4910 N   0  3  0  0  0
    4.4960   11.3880   44.3380 C   0  0  0  0  0
    5.2740   11.5260   43.0410 C   0  0  0  0  0
    6.2530   10.3940   42.8220 C   0  0  0  0  0
    6.0640    9.1260   43.3980 O   0  0  0  0  0
    7.2810   10.6760   42.0320 N   0  0  0  0  0
    8.1550    9.6890   41.4380 C   0  0  0  0  0
    7.9220    9.5420   39.9430 C   0  0  0  0  0
    6.2420    8.9890   39.5710 S   0  0  0  0  0
    9.5330   10.2040   41.5850 C   0  0  0  0  0
    9.6970   11.5960   41.4990 O   0  0  0  0  0
   10.5000    9.3110   41.7800 N   0  0  0  0  0
   11.8710    9.5590   41.3660 C   0  0  0  0  0
   12.6540   10.1250   42.5210 C   0  0  0  0  0
   13.7860   10.6260   42.3610 O   0  5  0  0  0
   12.1630   10.1010   43.6650 O   0  0  0  0  0
    2.7111   10.6410   43.7204 H   0  0  0  0  0
    1.3068   11.8712   45.3399 H   0  0  0  0  0
    2.4671   10.9201   46.0652 H   0  0  0  0  0
    2.6852   12.5691   45.9642 H   0  0  0  0  0
    4.6549   10.3703   44.6945 H   0  0  0  0  0
    4.8560   12.1700   45.0066 H   0  0  0  0  0
    5.8427   12.4546   43.0899 H   0  0  0  0  0
    4.5582   11.5122   42.2191 H   0  0  0  0  0
    7.4679   11.6581   41.8294 H   0  0  0  0  0
    7.9760    8.7298   41.9239 H   0  0  0  0  0
    8.6189    8.7960   39.5611 H   0  0  0  0  0
    8.0712   10.5161   39.4773 H   0  0  0  0  0
    6.0949    8.8780   38.2538 H   0  0  0  0  0
   10.2724    8.4262   42.2335 H   0  0  0  0  0
   11.8766   10.2717   40.5413 H   0  0  0  0  0
   12.3268    8.6226   41.0442 H   0  0  0  0  0
  1  2  1  0  0  0
  2  3  2  0  0  0
  2  4  1  0  0  0
  4  5  1  0  0  0
  4  6  1  0  0  0
  6  7  1  0  0  0
  7  8  1  0  0  0
  8  9  2  0  0  0
  8 10  1  0  0  0
 10 11  1  0  0  0
 11 12  1  0  0  0
 11 14  1  0  0  0
 12 13  1  0  0  0
 14 15  2  0  0  0
 14 16  1  0  0  0
 16 17  1  0  0  0
 17 18  1  0  0  0
 18 19  1  0  0  0
 18 20  2  0  0  0
  4 21  1  0  0  0
  5 22  1  0  0  0
  5 23  1  0  0  0
  5 24  1  0  0  0
  6 25  1  0  0  0
  6 26  1  0  0  0
  7 27  1  0  0  0
  7 28  1  0  0  0
 10 29  1  0  0  0
 11 30  1  0  0  0
 12 31  1  0  0  0
 12 32  1  0  0  0
 13 33  1  0  0  0
 16 34  1  0  0  0
 17 35  1  0  0  0
 17 36  1  0  0  0
M  END
$$$$
