### 
### Created by X-TOOL on Sun Jun  3 11:58:48 2007
### 

@<TRIPOS>MOLECULE
2ca8_ligand
   36    35     1     0     0
SMALL
GAST_HUCK


@<TRIPOS>ATOM
      1 O12         3.0620   13.7770   43.1150 O.2       1 SUB1       -0.256
      2 C1          2.4810   12.6830   43.3080 C.2       1 SUB1        0.393
      3 O11         1.3950   12.4470   42.7320 O.2       1 SUB1       -0.256
      4 CA1         2.9750   11.5810   44.2050 C.3       1 SUB1        0.091
      5 N1          2.3080   11.7480   45.4910 N.4       1 SUB1        0.237
      6 CB1         4.4960   11.3880   44.3380 C.3       1 SUB1        0.024
      7 CG1         5.2740   11.5260   43.0410 C.3       1 SUB1        0.044
      8 CD1         6.2530   10.3940   42.8220 C.2       1 SUB1        0.178
      9 OE1         6.0640    9.1260   43.3980 O.2       1 SUB1       -0.397
     10 N2          7.2810   10.6760   42.0320 N.am      1 SUB1       -0.265
     11 CA2         8.1550    9.6890   41.4380 C.3       1 SUB1        0.140
     12 CB2         7.9220    9.5420   39.9430 C.3       1 SUB1        0.031
     13 SG2         6.2420    8.9890   39.5710 S.3       1 SUB1       -0.174
     14 C2          9.5330   10.2040   41.5850 C.2       1 SUB1        0.204
     15 O2          9.6970   11.5960   41.4990 O.2       1 SUB1       -0.394
     16 N3         10.5000    9.3110   41.7800 N.am      1 SUB1       -0.267
     17 CA3        11.8710    9.5590   41.3660 C.3       1 SUB1        0.143
     18 C3         12.6540   10.1250   42.5210 C.2       1 SUB1        0.367
     19 O31        13.7860   10.6260   42.3610 O.2       1 SUB1       -0.260
     20 O32        12.1630   10.1010   43.6650 O.2       1 SUB1       -0.260
     21 H           2.7111   10.6410   43.7204 H         1 SUB1        0.108
     22 H           1.3068   11.8712   45.3399 H         1 SUB1        0.201
     23 H           2.4671   10.9201   46.0652 H         1 SUB1        0.201
     24 H           2.6852   12.5691   45.9642 H         1 SUB1        0.201
     25 H           4.6549   10.3703   44.6945 H         1 SUB1        0.036
     26 H           4.8560   12.1700   45.0066 H         1 SUB1        0.036
     27 H           5.8427   12.4546   43.0899 H         1 SUB1        0.051
     28 H           4.5582   11.5122   42.2191 H         1 SUB1        0.051
     29 H           7.4679   11.6581   41.8294 H         1 SUB1        0.188
     30 H           7.9760    8.7298   41.9239 H         1 SUB1        0.081
     31 H           8.6189    8.7960   39.5611 H         1 SUB1        0.042
     32 H           8.0712   10.5161   39.4773 H         1 SUB1        0.042
     33 H           6.0949    8.8780   38.2538 H         1 SUB1        0.102
     34 H          10.2724    8.4262   42.2335 H         1 SUB1        0.188
     35 H          11.8766   10.2717   40.5413 H         1 SUB1        0.074
     36 H          12.3268    8.6226   41.0442 H         1 SUB1        0.074
@<TRIPOS>BOND
     1    1    2 2  
     2    2    3 2  
     3    2    4 1  
     4    4    5 1  
     5    4    6 1  
     6    6    7 1  
     7    7    8 1  
     8    8    9 2  
     9    8   10 am 
    10   10   11 1  
    11   11   12 1  
    12   11   14 1  
    13   12   13 1  
    14   14   15 2  
    15   14   16 am 
    16   16   17 1  
    17   17   18 1  
    18   18   19 2  
    19   18   20 2  
    20    4   21 1  
    21    5   22 1  
    22    5   23 1  
    23    5   24 1  
    24    6   25 1  
    25    6   26 1  
    26    7   27 1  
    27    7   28 1  
    28   10   29 1  
    29   11   30 1  
    30   12   31 1  
    31   12   32 1  
    32   13   33 1  
    33   16   34 1  
    34   17   35 1  
    35   17   36 1  
@<TRIPOS>SUBSTRUCTURE
     1 SUB1        1 GROUP

