### 
### Created by X-TOOL on Tue Oct 25 02:03:51 2005
### 

@<TRIPOS>MOLECULE
1owd_ligand
   53    56     1     0     0
SMALL
GAST_HUCK


@<TRIPOS>ATOM
      1 C47        29.9610   10.5100   33.5110 C.3       1 SUB1       -0.063
      2 C45        28.5190   10.8440   33.1590 C.3       1 SUB1       -0.043
      3 C39        28.3610   10.9620   31.6530 C.3       1 SUB1       -0.001
      4 C38        28.8240    9.8200   30.7370 C.3       1 SUB1        0.009
      5 N37        29.2180   10.4030   29.4480 N.3       1 SUB1       -0.306
      6 C36        28.2460   11.2590   28.7480 C.3       1 SUB1        0.021
      7 C26        27.3310   12.0620   29.6560 C.ar      1 SUB1       -0.041
      8 C27        27.2540   11.7970   31.0550 C.ar      1 SUB1       -0.048
      9 C28        26.1890   12.3400   31.8040 C.ar      1 SUB1       -0.046
     10 C22        25.3520   13.3140   31.2130 C.ar      1 SUB1        0.053
     11 N21        24.2760   13.8910   31.8340 N.am      1 SUB1       -0.238
     12 C20        24.3750   14.6380   32.9380 C.2       1 SUB1        0.230
     13 O23        25.3290   14.4670   33.6600 O.2       1 SUB1       -0.374
     14 C11        23.3220   15.6590   33.2280 C.ar      1 SUB1        0.056
     15 C12        23.6510   16.7190   34.1180 C.ar      1 SUB1       -0.043
     16 C13        22.7050   17.6950   34.4790 C.ar      1 SUB1       -0.051
     17 C4         21.4010   17.6640   33.9270 C.ar      1 SUB1       -0.011
     18 C5         20.4950   18.7210   34.1490 C.ar      1 SUB1        0.002
     19 C6         19.2050   18.7230   33.5720 C.ar      1 SUB1        0.188
     20 C1         18.8770   17.7140   32.6360 C.ar      1 SUB1       -0.005
     21 C2         19.7930   16.6790   32.3730 C.ar      1 SUB1       -0.047
     22 C3         21.0590   16.6360   33.0030 C.ar      1 SUB1       -0.011
     23 C10        22.0140   15.6320   32.6690 C.ar      1 SUB1       -0.032
     24 C17        18.2110   19.7350   33.9890 C.cat     1 SUB1        0.317
     25 N18        18.5880   20.9290   34.4080 N.pl3     1 SUB1       -0.200
     26 N19        16.9240   19.4960   33.9780 N.pl3     1 SUB1       -0.200
     27 C24        25.6060   13.7230   29.8970 C.ar      1 SUB1       -0.054
     28 C25        26.5440   13.0830   29.0890 C.ar      1 SUB1       -0.078
     29 H11        30.0533   10.4292   34.6041 H         1 SUB1        0.023
     30 H12        30.2456    9.5500   33.0557 H         1 SUB1        0.023
     31 H13        30.6288   11.3074   33.1532 H         1 SUB1        0.023
     32 H21        27.8553   10.0454   33.5218 H         1 SUB1        0.029
     33 H22        28.2385   11.8028   33.6193 H         1 SUB1        0.029
     34 H31        29.1881   11.6656   31.4776 H         1 SUB1        0.046
     35 H41        29.6881    9.3041   31.1809 H         1 SUB1        0.045
     36 H42        28.0029    9.1059   30.5762 H         1 SUB1        0.045
     37 H51        30.0976   11.0065   29.6166 H         1 SUB1        0.124
     38 H61        28.7991   11.9731   28.1203 H         1 SUB1        0.054
     39 H62        27.6095   10.6204   28.1179 H         1 SUB1        0.054
     40 H91        26.0141   12.0136   32.8228 H         1 SUB1        0.042
     41 H111       23.3682   13.7457   31.4405 H         1 SUB1        0.223
     42 H151       24.6533   16.7756   34.5270 H         1 SUB1        0.065
     43 H161       22.9749   18.4742   35.1826 H         1 SUB1        0.063
     44 H181       20.7950   19.5519   34.7772 H         1 SUB1        0.067
     45 H201       17.9225   17.7383   32.1229 H         1 SUB1        0.067
     46 H211       19.5228   15.8973   31.6723 H         1 SUB1        0.064
     47 H231       21.7408   14.8395   31.9818 H         1 SUB1        0.069
     48 H251       17.8811   21.6212   34.6945 H         1 SUB1        0.192
     49 H252       19.5890   21.1683   34.4484 H         1 SUB1        0.192
     50 H261       16.5728   18.5812   33.6607 H         1 SUB1        0.192
     51 H262       16.2626   20.2228   34.2866 H         1 SUB1        0.192
     52 H271       25.0547   14.5650   29.4942 H         1 SUB1        0.043
     53 H281       26.6649   13.3643   28.0491 H         1 SUB1        0.050
@<TRIPOS>BOND
     1    1    2 1  
     2    2    3 1  
     3    3    4 1  
     4    3    8 1  
     5    4    5 1  
     6    5    6 1  
     7    6    7 1  
     8    7    8 ar 
     9    7   28 ar 
    10    8    9 ar 
    11    9   10 ar 
    12   10   11 1  
    13   10   27 ar 
    14   11   12 am 
    15   12   13 2  
    16   12   14 1  
    17   14   15 ar 
    18   14   23 ar 
    19   15   16 ar 
    20   16   17 ar 
    21   17   18 ar 
    22   17   22 ar 
    23   18   19 ar 
    24   19   20 ar 
    25   19   24 1  
    26   20   21 ar 
    27   21   22 ar 
    28   22   23 ar 
    29   24   25 1  
    30   24   26 1  
    31   27   28 ar 
    32    1   29 1  
    33    1   30 1  
    34    1   31 1  
    35    2   32 1  
    36    2   33 1  
    37    3   34 1  
    38    4   35 1  
    39    4   36 1  
    40    5   37 1  
    41    6   38 1  
    42    6   39 1  
    43    9   40 1  
    44   11   41 1  
    45   15   42 1  
    46   16   43 1  
    47   18   44 1  
    48   20   45 1  
    49   21   46 1  
    50   23   47 1  
    51   25   48 1  
    52   25   49 1  
    53   26   50 1  
    54   26   51 1  
    55   27   52 1  
    56   28   53 1  
@<TRIPOS>SUBSTRUCTURE
     1 SUB1        1 GROUP

