1owd_ligand
  -I-interpret- 

 53 56  0  0  0  0  0  0  0  0999 V2000
   29.9610   10.5100   33.5110 C   0  0  0  0  0
   28.5190   10.8440   33.1590 C   0  0  0  0  0
   28.3610   10.9620   31.6530 C   0  0  0  0  0
   28.8240    9.8200   30.7370 C   0  0  0  0  0
   29.2180   10.4030   29.4480 N   0  0  0  0  0
   28.2460   11.2590   28.7480 C   0  0  0  0  0
   27.3310   12.0620   29.6560 C   0  0  0  0  0
   27.2540   11.7970   31.0550 C   0  0  0  0  0
   26.1890   12.3400   31.8040 C   0  0  0  0  0
   25.3520   13.3140   31.2130 C   0  0  0  0  0
   24.2760   13.8910   31.8340 N   0  0  0  0  0
   24.3750   14.6380   32.9380 C   0  0  0  0  0
   25.3290   14.4670   33.6600 O   0  0  0  0  0
   23.3220   15.6590   33.2280 C   0  0  0  0  0
   23.6510   16.7190   34.1180 C   0  0  0  0  0
   22.7050   17.6950   34.4790 C   0  0  0  0  0
   21.4010   17.6640   33.9270 C   0  0  0  0  0
   20.4950   18.7210   34.1490 C   0  0  0  0  0
   19.2050   18.7230   33.5720 C   0  0  0  0  0
   18.8770   17.7140   32.6360 C   0  0  0  0  0
   19.7930   16.6790   32.3730 C   0  0  0  0  0
   21.0590   16.6360   33.0030 C   0  0  0  0  0
   22.0140   15.6320   32.6690 C   0  0  0  0  0
   18.2110   19.7350   33.9890 C   0  3  0  0  0
   18.5880   20.9290   34.4080 N   0  0  0  0  0
   16.9240   19.4960   33.9780 N   0  0  0  0  0
   25.6060   13.7230   29.8970 C   0  0  0  0  0
   26.5440   13.0830   29.0890 C   0  0  0  0  0
   30.0533   10.4292   34.6041 H   0  0  0  0  0
   30.2456    9.5500   33.0557 H   0  0  0  0  0
   30.6288   11.3074   33.1532 H   0  0  0  0  0
   27.8553   10.0454   33.5218 H   0  0  0  0  0
   28.2385   11.8028   33.6193 H   0  0  0  0  0
   29.1881   11.6656   31.4776 H   0  0  0  0  0
   29.6881    9.3041   31.1809 H   0  0  0  0  0
   28.0029    9.1059   30.5762 H   0  0  0  0  0
   30.0976   11.0065   29.6166 H   0  0  0  0  0
   28.7991   11.9731   28.1203 H   0  0  0  0  0
   27.6095   10.6204   28.1179 H   0  0  0  0  0
   26.0141   12.0136   32.8228 H   0  0  0  0  0
   23.3682   13.7457   31.4405 H   0  0  0  0  0
   24.6533   16.7756   34.5270 H   0  0  0  0  0
   22.9749   18.4742   35.1826 H   0  0  0  0  0
   20.7950   19.5519   34.7772 H   0  0  0  0  0
   17.9225   17.7383   32.1229 H   0  0  0  0  0
   19.5228   15.8973   31.6723 H   0  0  0  0  0
   21.7408   14.8395   31.9818 H   0  0  0  0  0
   17.8811   21.6212   34.6945 H   0  0  0  0  0
   19.5890   21.1683   34.4484 H   0  0  0  0  0
   16.5728   18.5812   33.6607 H   0  0  0  0  0
   16.2626   20.2228   34.2866 H   0  0  0  0  0
   25.0547   14.5650   29.4942 H   0  0  0  0  0
   26.6649   13.3643   28.0491 H   0  0  0  0  0
  1  2  1  0  0  0
  2  3  1  0  0  0
  3  4  1  0  0  0
  3  8  1  0  0  0
  4  5  1  0  0  0
  5  6  1  0  0  0
  6  7  1  0  0  0
  7  8  4  0  0  0
  7 28  4  0  0  0
  8  9  4  0  0  0
  9 10  4  0  0  0
 10 11  1  0  0  0
 10 27  4  0  0  0
 11 12  1  0  0  0
 12 13  2  0  0  0
 12 14  1  0  0  0
 14 15  4  0  0  0
 14 23  4  0  0  0
 15 16  4  0  0  0
 16 17  4  0  0  0
 17 18  4  0  0  0
 17 22  4  0  0  0
 18 19  4  0  0  0
 19 20  4  0  0  0
 19 24  1  0  0  0
 20 21  4  0  0  0
 21 22  4  0  0  0
 22 23  4  0  0  0
 24 25  1  0  0  0
 24 26  1  0  0  0
 27 28  4  0  0  0
  1 29  1  0  0  0
  1 30  1  0  0  0
  1 31  1  0  0  0
  2 32  1  0  0  0
  2 33  1  0  0  0
  3 34  1  0  0  0
  4 35  1  0  0  0
  4 36  1  0  0  0
  5 37  1  0  0  0
  6 38  1  0  0  0
  6 39  1  0  0  0
  9 40  1  0  0  0
 11 41  1  0  0  0
 15 42  1  0  0  0
 16 43  1  0  0  0
 18 44  1  0  0  0
 20 45  1  0  0  0
 21 46  1  0  0  0
 23 47  1  0  0  0
 25 48  1  0  0  0
 25 49  1  0  0  0
 26 50  1  0  0  0
 26 51  1  0  0  0
 27 52  1  0  0  0
 28 53  1  0  0  0
M  END
$$$$
