### 
### Created by X-TOOL on Mon Oct 24 23:21:54 2005
### 

@<TRIPOS>MOLECULE
1ecv_ligand
   20    20     1     0     0
SMALL
GAST_HUCK


@<TRIPOS>ATOM
      1 H51        13.6323   45.1262   19.4496 H         1 SUB1        0.090
      2 H61        11.9525   46.1908   20.9443 H         1 SUB1        0.064
      3 H91        10.5380   43.9867   16.6775 H         1 SUB1        0.092
      4 H141        8.3857   45.8942   20.1313 H         1 SUB1        0.255
      5 C1         12.5800   45.0950   19.1910 C.ar      1 SUB1       -0.025
      6 C2         11.6470   45.7120   20.0210 C.ar      1 SUB1        0.011
      7 C3         10.3050   45.6960   19.6290 C.ar      1 SUB1        0.154
      8 C4          9.9240   45.1170   18.4090 C.ar      1 SUB1        0.153
      9 C5         10.8440   44.4610   17.6030 C.ar      1 SUB1        0.007
     10 C6         12.1690   44.4310   18.0190 C.ar      1 SUB1        0.037
     11 C10         8.4990   45.1420   17.9810 C.2       1 SUB1        0.213
     12 O11         7.5840   45.2690   18.7380 O.co2     1 SUB1       -0.454
     13 O12         8.2750   44.9050   16.6860 O.co2     1 SUB1       -0.454
     14 N13         9.3060   46.1420   20.4340 N.am      1 SUB1       -0.227
     15 C14         9.3470   46.8630   21.5730 C.2       1 SUB1        0.092
     16 O15        10.3890   47.1340   22.1730 O.2       1 SUB1       -0.489
     17 C16         7.9330   47.2600   22.1520 C.2       1 SUB1       -0.090
     18 O17         6.9810   46.5360   22.1490 O.co2     1 SUB1       -0.691
     19 O18         7.8610   48.4170   22.7810 O.co2     1 SUB1       -0.691
     20 I19        13.5490   43.3360   16.8780 I         1 SUB1       -0.046
@<TRIPOS>BOND
     1   10   20 1  
     2    5    1 1  
     3    6    2 1  
     4    9    3 1  
     5   14    4 1  
     6    5   10 ar 
     7    6    5 ar 
     8    7    6 ar 
     9    7   14 1  
    10    8    7 ar 
    11    8   11 1  
    12    8    9 ar 
    13    9   10 ar 
    14   11   13 2  
    15   11   12 2  
    16   14   15 am 
    17   15   17 1  
    18   15   16 2  
    19   17   19 2  
    20   17   18 2  
@<TRIPOS>SUBSTRUCTURE
     1 SUB1        1 GROUP

