1ecv_ligand
  -I-interpret- 

 20 20  0  0  0  0  0  0  0  0999 V2000
   13.6323   45.1262   19.4496 H   0  0  0  0  0
   11.9525   46.1908   20.9443 H   0  0  0  0  0
   10.5380   43.9867   16.6775 H   0  0  0  0  0
    8.3857   45.8942   20.1313 H   0  0  0  0  0
   12.5800   45.0950   19.1910 C   0  0  0  0  0
   11.6470   45.7120   20.0210 C   0  0  0  0  0
   10.3050   45.6960   19.6290 C   0  0  0  0  0
    9.9240   45.1170   18.4090 C   0  0  0  0  0
   10.8440   44.4610   17.6030 C   0  0  0  0  0
   12.1690   44.4310   18.0190 C   0  0  0  0  0
    8.4990   45.1420   17.9810 C   0  0  0  0  0
    7.5840   45.2690   18.7380 O   0  0  0  0  0
    8.2750   44.9050   16.6860 O   0  5  0  0  0
    9.3060   46.1420   20.4340 N   0  0  0  0  0
    9.3470   46.8630   21.5730 C   0  0  0  0  0
   10.3890   47.1340   22.1730 O   0  0  0  0  0
    7.9330   47.2600   22.1520 C   0  0  0  0  0
    6.9810   46.5360   22.1490 O   0  0  0  0  0
    7.8610   48.4170   22.7810 O   0  5  0  0  0
   13.5490   43.3360   16.8780 I   0  0  0  0  0
 10 20  1  0  0  0
  5  1  1  0  0  0
  6  2  1  0  0  0
  9  3  1  0  0  0
 14  4  1  0  0  0
  5 10  4  0  0  0
  6  5  4  0  0  0
  7  6  4  0  0  0
  7 14  1  0  0  0
  8  7  4  0  0  0
  8 11  1  0  0  0
  8  9  4  0  0  0
  9 10  4  0  0  0
 11 13  1  0  0  0
 11 12  2  0  0  0
 14 15  1  0  0  0
 15 17  1  0  0  0
 15 16  2  0  0  0
 17 19  1  0  0  0
 17 18  2  0  0  0
M  END
$$$$
