1o0o_ligand
  -I-interpret- 

 38 40  0  0  0  0  0  0  0  0999 V2000
   36.3590    3.6090   13.4420 P   0  0  0  0  0
   36.7270    4.9590   13.9770 O   0  5  0  0  0
   37.2060    3.2140   12.3040 O   0  0  0  0  0
   34.8800    3.5010   13.3260 O   0  5  0  0  0
   42.1440    2.3050   13.3320 P   0  0  0  0  0
   41.8440    3.6500   12.7310 O   0  5  0  0  0
   43.3870    2.3670   14.1840 O   0  5  0  0  0
   42.1020    1.2890   12.2260 O   0  0  0  0  0
   40.8970    1.9240   14.2700 O   0  0  0  0  0
   40.8420    0.6930   14.9690 C   0  0  0  0  0
   39.5610    0.6680   15.8020 C   0  0  0  0  0
   39.5110    1.7240   16.7830 O   0  0  0  0  0
   38.3000    0.8680   14.9600 C   0  0  0  0  0
   37.1980    0.1680   15.5180 O   0  0  0  0  0
   38.0890    2.3690   15.0240 C   0  0  0  0  0
   36.7370    2.7100   14.7360 O   0  0  0  0  0
   38.4660    2.6570   16.4630 C   0  0  0  0  0
   39.0210    3.9980   16.7420 N   0  0  0  0  0
   39.6650    4.8070   15.8500 C   0  0  0  0  0
   40.1090    5.9510   16.4230 N   0  0  0  0  0
   39.7320    5.8430   17.7030 C   0  0  0  0  0
   39.8900    6.6780   18.8920 C   0  0  0  0  0
   40.5050    7.8750   18.7950 N   0  0  0  0  0
   39.3930    6.2390   20.0420 N   0  0  0  0  0
   38.7510    5.0650   20.1330 C   0  0  0  0  0
   38.5370    4.2240   19.1150 N   0  0  0  0  0
   39.0490    4.5690   17.9340 C   0  0  0  0  0
   40.8258   -0.1453   14.2570 H   0  0  0  0  0
   41.7097    0.5997   15.6386 H   0  0  0  0  0
   39.4978   -0.3089   16.3037 H   0  0  0  0  0
   38.4561    0.5484   13.9191 H   0  0  0  0  0
   36.4291    0.3080   14.9780 H   0  0  0  0  0
   38.7595    2.9057   14.3367 H   0  0  0  0  0
   37.5855    2.5112   17.1060 H   0  0  0  0  0
   39.8054    4.5605   14.7986 H   0  0  0  0  0
   40.6176    8.4654   19.6314 H   0  0  0  0  0
   40.8618    8.1984   17.8845 H   0  0  0  0  0
   38.3761    4.7749   21.1079 H   0  0  0  0  0
  1  2  1  0  0  0
  1  3  2  0  0  0
  1  4  1  0  0  0
 16  1  1  0  0  0
  5  6  1  0  0  0
  5  7  1  0  0  0
  5  8  2  0  0  0
  9  5  1  0  0  0
 10  9  1  0  0  0
 11 10  1  0  0  0
 11 12  1  0  0  0
 13 11  1  0  0  0
 13 14  1  0  0  0
 15 13  1  0  0  0
 16 15  1  0  0  0
 15 17  1  0  0  0
 17 12  1  0  0  0
 17 18  1  0  0  0
 18 19  1  0  0  0
 18 27  1  0  0  0
 19 20  2  0  0  0
 20 21  1  0  0  0
 21 22  4  0  0  0
 21 27  4  0  0  0
 22 23  1  0  0  0
 22 24  4  0  0  0
 24 25  4  0  0  0
 25 26  4  0  0  0
 26 27  4  0  0  0
 10 28  1  0  0  0
 10 29  1  0  0  0
 11 30  1  0  0  0
 13 31  1  0  0  0
 14 32  1  0  0  0
 15 33  1  0  0  0
 17 34  1  0  0  0
 19 35  1  0  0  0
 23 36  1  0  0  0
 23 37  1  0  0  0
 25 38  1  0  0  0
M  END
$$$$
