### 
### Created by X-TOOL on Mon Oct 24 21:53:01 2005
### 

@<TRIPOS>MOLECULE
1o0o_ligand
   38    40     1     0     0
SMALL
GAST_HUCK


@<TRIPOS>ATOM
      1 P1         36.3590    3.6090   13.4420 P.3       1 SUB1        0.206
      2 O1P        36.7270    4.9590   13.9770 O.co2     1 SUB1       -0.535
      3 O2P        37.2060    3.2140   12.3040 O.co2     1 SUB1       -0.535
      4 O3P        34.8800    3.5010   13.3260 O.co2     1 SUB1       -0.535
      5 P2         42.1440    2.3050   13.3320 P.3       1 SUB1        0.205
      6 O4P        41.8440    3.6500   12.7310 O.co2     1 SUB1       -0.535
      7 O5P        43.3870    2.3670   14.1840 O.co2     1 SUB1       -0.535
      8 O6P        42.1020    1.2890   12.2260 O.co2     1 SUB1       -0.535
      9 O5'        40.8970    1.9240   14.2700 O.3       1 SUB1       -0.320
     10 C5'        40.8420    0.6930   14.9690 C.3       1 SUB1        0.095
     11 C4'        39.5610    0.6680   15.8020 C.3       1 SUB1        0.118
     12 O4'        39.5110    1.7240   16.7830 O.3       1 SUB1       -0.336
     13 C3'        38.3000    0.8680   14.9600 C.3       1 SUB1        0.119
     14 O3'        37.1980    0.1680   15.5180 O.3       1 SUB1       -0.386
     15 C2'        38.0890    2.3690   15.0240 C.3       1 SUB1        0.160
     16 O2'        36.7370    2.7100   14.7360 O.3       1 SUB1       -0.311
     17 C1'        38.4660    2.6570   16.4630 C.3       1 SUB1        0.205
     18 N9         39.0210    3.9980   16.7420 N.pl3     1 SUB1       -0.191
     19 C8         39.6650    4.8070   15.8500 C.2       1 SUB1        0.112
     20 N7         40.1090    5.9510   16.4230 N.2       1 SUB1       -0.296
     21 C5         39.7320    5.8430   17.7030 C.ar      1 SUB1        0.105
     22 C6         39.8900    6.6780   18.8920 C.ar      1 SUB1        0.130
     23 N6         40.5050    7.8750   18.7950 N.pl3     1 SUB1       -0.315
     24 N1         39.3930    6.2390   20.0420 N.ar      1 SUB1       -0.270
     25 C2         38.7510    5.0650   20.1330 C.ar      1 SUB1        0.053
     26 N3         38.5370    4.2240   19.1150 N.ar      1 SUB1       -0.271
     27 C4         39.0490    4.5690   17.9340 C.ar      1 SUB1        0.161
     28 H101       40.8258   -0.1453   14.2570 H         1 SUB1        0.064
     29 H102       41.7097    0.5997   15.6386 H         1 SUB1        0.064
     30 H111       39.4978   -0.3089   16.3037 H         1 SUB1        0.065
     31 H131       38.4561    0.5484   13.9191 H         1 SUB1        0.065
     32 H141       36.4291    0.3080   14.9780 H         1 SUB1        0.210
     33 H151       38.7595    2.9057   14.3367 H         1 SUB1        0.073
     34 H171       37.5855    2.5112   17.1060 H         1 SUB1        0.100
     35 H191       39.8054    4.5605   14.7986 H         1 SUB1        0.135
     36 H231       40.6176    8.4654   19.6314 H         1 SUB1        0.182
     37 H232       40.8618    8.1984   17.8845 H         1 SUB1        0.182
     38 H251       38.3761    4.7749   21.1079 H         1 SUB1        0.100
@<TRIPOS>BOND
     1    1    2 2  
     2    1    3 2  
     3    1    4 2  
     4   16    1 1  
     5    5    6 2  
     6    5    7 2  
     7    5    8 2  
     8    9    5 1  
     9   10    9 1  
    10   11   10 1  
    11   11   12 1  
    12   13   11 1  
    13   13   14 1  
    14   15   13 1  
    15   16   15 1  
    16   15   17 1  
    17   17   12 1  
    18   17   18 1  
    19   18   19 1  
    20   18   27 1  
    21   19   20 2  
    22   20   21 1  
    23   21   22 ar 
    24   21   27 ar 
    25   22   23 1  
    26   22   24 ar 
    27   24   25 ar 
    28   25   26 ar 
    29   26   27 ar 
    30   10   28 1  
    31   10   29 1  
    32   11   30 1  
    33   13   31 1  
    34   14   32 1  
    35   15   33 1  
    36   17   34 1  
    37   19   35 1  
    38   23   36 1  
    39   23   37 1  
    40   25   38 1  
@<TRIPOS>SUBSTRUCTURE
     1 SUB1        1 GROUP

