### 
### Created by X-TOOL on Mon Oct 24 22:05:33 2005
### 

@<TRIPOS>MOLECULE
1lor_ligand
   33    34     1     0     0
SMALL
GAST_HUCK


@<TRIPOS>ATOM
      1 P          39.3420   34.7470   35.1960 P.3       1 SUB1        0.205
      2 O1P        40.5880   34.8470   34.3600 O.co2     1 SUB1       -0.535
      3 O2P        38.1800   34.4870   34.3190 O.co2     1 SUB1       -0.535
      4 O3P        39.3610   33.5690   36.3050 O.co2     1 SUB1       -0.535
      5 O5'        38.9930   36.0960   35.9780 O.3       1 SUB1       -0.320
      6 C5'        39.9270   36.7430   36.8350 C.3       1 SUB1        0.094
      7 C4'        39.2490   37.9700   37.4020 C.3       1 SUB1        0.118
      8 O4'        40.1870   38.6590   38.2380 O.3       1 SUB1       -0.337
      9 C3'        38.6750   39.0070   36.4590 C.3       1 SUB1        0.115
     10 O3'        37.5090   39.6570   36.9960 O.3       1 SUB1       -0.386
     11 C2'        39.8350   39.9980   36.3380 C.3       1 SUB1        0.138
     12 O2'        39.4210   41.3320   35.9880 O.3       1 SUB1       -0.384
     13 C1'        40.5140   39.9040   37.7060 C.3       1 SUB1        0.208
     14 N1         41.9530   40.1890   37.8410 N.am      1 SUB1       -0.125
     15 C2         42.8650   39.4910   37.0300 C.2       1 SUB1        0.333
     16 O2         42.4720   38.6550   36.2370 O.2       1 SUB1       -0.382
     17 N3         44.1790   39.8180   37.2130 N.am      1 SUB1       -0.191
     18 C4         44.6910   40.7540   38.1110 C.2       1 SUB1        0.164
     19 O4         45.8960   40.9160   38.1400 O.2       1 SUB1       -0.427
     20 C5         43.6980   41.4160   38.9130 C.2       1 SUB1        0.022
     21 C6         42.3960   41.1410   38.7790 C.2       1 SUB1        0.212
     22 O1         41.5150   41.7000   39.4770 O.3       1 SUB1       -0.289
     23 H61        40.8197   37.0374   36.2636 H         1 SUB1        0.064
     24 H62        40.2205   36.0655   37.6504 H         1 SUB1        0.064
     25 H71        38.4153   37.6068   38.0209 H         1 SUB1        0.065
     26 H91        38.4257   38.5595   35.4856 H         1 SUB1        0.065
     27 H101       37.2499   40.3666   36.4200 H         1 SUB1        0.210
     28 H111       40.5312   39.6543   35.5588 H         1 SUB1        0.068
     29 H121       38.8016   41.6500   36.6344 H         1 SUB1        0.210
     30 H131       40.0213   40.6640   38.3302 H         1 SUB1        0.099
     31 H171       44.8436   39.3352   36.6428 H         1 SUB1        0.225
     32 H201       44.0130   42.1576   39.6456 H         1 SUB1        0.005
     33 H221       41.9269   42.3178   40.0696 H         1 SUB1        0.264
@<TRIPOS>BOND
     1    1    5 1  
     2    1    4 2  
     3    1    3 2  
     4    1    2 2  
     5    5    6 1  
     6    6    7 1  
     7    7    9 1  
     8    7    8 1  
     9    8   13 1  
    10   13   14 am 
    11   13   11 1  
    12   11   12 1  
    13   11    9 1  
    14    9   10 1  
    15   14   21 1  
    16   14   15 1  
    17   15   17 am 
    18   15   16 2  
    19   17   18 am 
    20   18   20 1  
    21   18   19 2  
    22   20   21 2  
    23   21   22 1  
    24    6   23 1  
    25    6   24 1  
    26    7   25 1  
    27    9   26 1  
    28   10   27 1  
    29   11   28 1  
    30   12   29 1  
    31   13   30 1  
    32   17   31 1  
    33   20   32 1  
    34   22   33 1  
@<TRIPOS>SUBSTRUCTURE
     1 SUB1        1 GROUP

