1lor_ligand
  -I-interpret- 

 33 34  0  0  0  0  0  0  0  0999 V2000
   39.3420   34.7470   35.1960 P   0  0  0  0  0
   40.5880   34.8470   34.3600 O   0  5  0  0  0
   38.1800   34.4870   34.3190 O   0  0  0  0  0
   39.3610   33.5690   36.3050 O   0  5  0  0  0
   38.9930   36.0960   35.9780 O   0  0  0  0  0
   39.9270   36.7430   36.8350 C   0  0  0  0  0
   39.2490   37.9700   37.4020 C   0  0  0  0  0
   40.1870   38.6590   38.2380 O   0  0  0  0  0
   38.6750   39.0070   36.4590 C   0  0  0  0  0
   37.5090   39.6570   36.9960 O   0  0  0  0  0
   39.8350   39.9980   36.3380 C   0  0  0  0  0
   39.4210   41.3320   35.9880 O   0  0  0  0  0
   40.5140   39.9040   37.7060 C   0  0  0  0  0
   41.9530   40.1890   37.8410 N   0  0  0  0  0
   42.8650   39.4910   37.0300 C   0  0  0  0  0
   42.4720   38.6550   36.2370 O   0  0  0  0  0
   44.1790   39.8180   37.2130 N   0  0  0  0  0
   44.6910   40.7540   38.1110 C   0  0  0  0  0
   45.8960   40.9160   38.1400 O   0  0  0  0  0
   43.6980   41.4160   38.9130 C   0  0  0  0  0
   42.3960   41.1410   38.7790 C   0  0  0  0  0
   41.5150   41.7000   39.4770 O   0  0  0  0  0
   40.8197   37.0374   36.2636 H   0  0  0  0  0
   40.2205   36.0655   37.6504 H   0  0  0  0  0
   38.4153   37.6068   38.0209 H   0  0  0  0  0
   38.4257   38.5595   35.4856 H   0  0  0  0  0
   37.2499   40.3666   36.4200 H   0  0  0  0  0
   40.5312   39.6543   35.5588 H   0  0  0  0  0
   38.8016   41.6500   36.6344 H   0  0  0  0  0
   40.0213   40.6640   38.3302 H   0  0  0  0  0
   44.8436   39.3352   36.6428 H   0  0  0  0  0
   44.0130   42.1576   39.6456 H   0  0  0  0  0
   41.9269   42.3178   40.0696 H   0  0  0  0  0
  1  5  1  0  0  0
  1  4  1  0  0  0
  1  3  2  0  0  0
  1  2  1  0  0  0
  5  6  1  0  0  0
  6  7  1  0  0  0
  7  9  1  0  0  0
  7  8  1  0  0  0
  8 13  1  0  0  0
 13 14  1  0  0  0
 13 11  1  0  0  0
 11 12  1  0  0  0
 11  9  1  0  0  0
  9 10  1  0  0  0
 14 21  1  0  0  0
 14 15  1  0  0  0
 15 17  1  0  0  0
 15 16  2  0  0  0
 17 18  1  0  0  0
 18 20  1  0  0  0
 18 19  2  0  0  0
 20 21  2  0  0  0
 21 22  1  0  0  0
  6 23  1  0  0  0
  6 24  1  0  0  0
  7 25  1  0  0  0
  9 26  1  0  0  0
 10 27  1  0  0  0
 11 28  1  0  0  0
 12 29  1  0  0  0
 13 30  1  0  0  0
 17 31  1  0  0  0
 20 32  1  0  0  0
 22 33  1  0  0  0
M  END
$$$$
