### 
### Created by X-TOOL on Sun Jun  3 11:59:07 2007
### 

@<TRIPOS>MOLECULE
2cbu_ligand
   28    29     1     0     0
SMALL
GAST_HUCK


@<TRIPOS>ATOM
      1 C1         -0.5070   10.8440   10.6270 C.3       1 SUB1        0.028
      2 C2          0.3330   11.6930    9.6800 C.3       1 SUB1        0.096
      3 C3         -0.2730   11.9170    8.2970 C.3       1 SUB1        0.109
      4 C4         -1.0850   10.6940    7.8910 C.3       1 SUB1        0.101
      5 C5         -2.3280   10.6590    8.7820 C.3       1 SUB1        0.065
      6 C6         -3.1010    9.3570    8.7240 C.3       1 SUB1        0.074
      7 O2          0.5420   12.9510   10.3040 O.3       1 SUB1       -0.388
      8 O3          0.8230   12.2310    7.4310 O.3       1 SUB1       -0.387
      9 O4         -1.5210   10.8180    6.5390 O.3       1 SUB1       -0.387
     10 O6         -2.2500    8.1960    8.8240 O.3       1 SUB1       -0.390
     11 N          -1.8710   10.5690   10.1820 N.3       1 SUB1       -0.292
     12 C7         -3.8450    9.3820   10.0520 C.3       1 SUB1       -0.013
     13 C8         -2.8230    9.8740   11.0510 C.3       1 SUB1        0.002
     14 H          -0.5911   11.4067   11.5567 H         1 SUB1        0.045
     15 H          -0.0058    9.8793   10.7065 H         1 SUB1        0.045
     16 H           1.2574   11.1438    9.5013 H         1 SUB1        0.063
     17 H          -0.9841   12.7422    8.2579 H         1 SUB1        0.065
     18 H          -0.4779    9.7946    7.9938 H         1 SUB1        0.064
     19 H          -2.9160   11.5210    8.4668 H         1 SUB1        0.051
     20 H          -3.6768    9.2901    7.8009 H         1 SUB1        0.061
     21 H           0.9232   12.8157   11.1746 H         1 SUB1        0.210
     22 H           0.4916   12.4018    6.5463 H         1 SUB1        0.210
     23 H          -0.7568   10.8422    5.9585 H         1 SUB1        0.210
     24 H          -2.7878    7.4019    8.7821 H         1 SUB1        0.210
     25 H          -4.2366    8.4004   10.3188 H         1 SUB1        0.030
     26 H          -4.7231   10.0267   10.0156 H         1 SUB1        0.030
     27 H          -3.2460   10.5096   11.8289 H         1 SUB1        0.043
     28 H          -2.3715    9.0759   11.6403 H         1 SUB1        0.043
@<TRIPOS>BOND
     1    1    2 1  
     2    1   11 1  
     3    2    3 1  
     4    2    7 1  
     5    3    4 1  
     6    3    8 1  
     7    4    5 1  
     8    4    9 1  
     9    5    6 1  
    10    5   11 1  
    11    6   10 1  
    12    6   12 1  
    13   11   13 1  
    14   12   13 1  
    15    1   14 1  
    16    1   15 1  
    17    2   16 1  
    18    3   17 1  
    19    4   18 1  
    20    5   19 1  
    21    6   20 1  
    22    7   21 1  
    23    8   22 1  
    24    9   23 1  
    25   10   24 1  
    26   12   25 1  
    27   12   26 1  
    28   13   27 1  
    29   13   28 1  
@<TRIPOS>SUBSTRUCTURE
     1 SUB1        1 GROUP

