2cbu_ligand
  -I-interpret- 

 28 29  0  0  0  0  0  0  0  0999 V2000
   -0.5070   10.8440   10.6270 C   0  0  0  0  0
    0.3330   11.6930    9.6800 C   0  0  0  0  0
   -0.2730   11.9170    8.2970 C   0  0  0  0  0
   -1.0850   10.6940    7.8910 C   0  0  0  0  0
   -2.3280   10.6590    8.7820 C   0  0  0  0  0
   -3.1010    9.3570    8.7240 C   0  0  0  0  0
    0.5420   12.9510   10.3040 O   0  0  0  0  0
    0.8230   12.2310    7.4310 O   0  0  0  0  0
   -1.5210   10.8180    6.5390 O   0  0  0  0  0
   -2.2500    8.1960    8.8240 O   0  0  0  0  0
   -1.8710   10.5690   10.1820 N   0  0  0  0  0
   -3.8450    9.3820   10.0520 C   0  0  0  0  0
   -2.8230    9.8740   11.0510 C   0  0  0  0  0
   -0.5911   11.4067   11.5567 H   0  0  0  0  0
   -0.0058    9.8793   10.7065 H   0  0  0  0  0
    1.2574   11.1438    9.5013 H   0  0  0  0  0
   -0.9841   12.7422    8.2579 H   0  0  0  0  0
   -0.4779    9.7946    7.9938 H   0  0  0  0  0
   -2.9160   11.5210    8.4668 H   0  0  0  0  0
   -3.6768    9.2901    7.8009 H   0  0  0  0  0
    0.9232   12.8157   11.1746 H   0  0  0  0  0
    0.4916   12.4018    6.5463 H   0  0  0  0  0
   -0.7568   10.8422    5.9585 H   0  0  0  0  0
   -2.7878    7.4019    8.7821 H   0  0  0  0  0
   -4.2366    8.4004   10.3188 H   0  0  0  0  0
   -4.7231   10.0267   10.0156 H   0  0  0  0  0
   -3.2460   10.5096   11.8289 H   0  0  0  0  0
   -2.3715    9.0759   11.6403 H   0  0  0  0  0
  1  2  1  0  0  0
  1 11  1  0  0  0
  2  3  1  0  0  0
  2  7  1  0  0  0
  3  4  1  0  0  0
  3  8  1  0  0  0
  4  5  1  0  0  0
  4  9  1  0  0  0
  5  6  1  0  0  0
  5 11  1  0  0  0
  6 10  1  0  0  0
  6 12  1  0  0  0
 11 13  1  0  0  0
 12 13  1  0  0  0
  1 14  1  0  0  0
  1 15  1  0  0  0
  2 16  1  0  0  0
  3 17  1  0  0  0
  4 18  1  0  0  0
  5 19  1  0  0  0
  6 20  1  0  0  0
  7 21  1  0  0  0
  8 22  1  0  0  0
  9 23  1  0  0  0
 10 24  1  0  0  0
 12 25  1  0  0  0
 12 26  1  0  0  0
 13 27  1  0  0  0
 13 28  1  0  0  0
M  END
$$$$
