### 
### Created by X-TOOL on Mon Oct 24 21:52:53 2005
### 

@<TRIPOS>MOLECULE
1utn_ligand
   18    18     1     0     0
SMALL
GAST_HUCK


@<TRIPOS>ATOM
      1 N          30.2440   16.3720   14.3550 N.4       1 SUB1        0.231
      2 C          28.9530   16.4890   14.9520 C.3       1 SUB1       -0.002
      3 C1         28.8580   15.6770   16.1470 C.ar      1 SUB1        0.001
      4 C2         28.9900   14.3000   16.2130 C.ar      1 SUB1       -0.055
      5 C3         28.8110   13.5170   17.3890 C.ar      1 SUB1       -0.068
      6 C4         28.6490   14.1390   18.6670 C.ar      1 SUB1       -0.069
      7 C5         28.5200   15.4850   18.6020 C.ar      1 SUB1       -0.068
      8 C6         28.6700   16.2560   17.4410 C.ar      1 SUB1       -0.055
      9 H11        30.2844   16.9453   13.5269 H         1 SUB1        0.201
     10 H12        30.4132   15.4100   14.1061 H         1 SUB1        0.201
     11 H13        30.9462   16.6781   15.0102 H         1 SUB1        0.201
     12 H21        28.1917   16.1575   14.2305 H         1 SUB1        0.098
     13 H22        28.7734   17.5413   15.2171 H         1 SUB1        0.098
     14 H41        29.2496   13.7780   15.2991 H         1 SUB1        0.056
     15 H51        28.7973   12.4356   17.3148 H         1 SUB1        0.060
     16 H61        28.6312   13.5853   19.5987 H         1 SUB1        0.056
     17 H71        28.2817   16.0082   19.5210 H         1 SUB1        0.060
     18 H81        28.6423   17.3362   17.5277 H         1 SUB1        0.056
@<TRIPOS>BOND
     1    1    2 1  
     2    2    3 1  
     3    3    4 ar 
     4    3    8 ar 
     5    4    5 ar 
     6    5    6 ar 
     7    6    7 ar 
     8    7    8 ar 
     9    1    9 1  
    10    1   10 1  
    11    1   11 1  
    12    2   12 1  
    13    2   13 1  
    14    4   14 1  
    15    5   15 1  
    16    6   16 1  
    17    7   17 1  
    18    8   18 1  
@<TRIPOS>SUBSTRUCTURE
     1 SUB1        1 GROUP

