1utn_ligand
  -I-interpret- 

 18 18  0  0  0  0  0  0  0  0999 V2000
   30.2440   16.3720   14.3550 N   0  3  0  0  0
   28.9530   16.4890   14.9520 C   0  0  0  0  0
   28.8580   15.6770   16.1470 C   0  0  0  0  0
   28.9900   14.3000   16.2130 C   0  0  0  0  0
   28.8110   13.5170   17.3890 C   0  0  0  0  0
   28.6490   14.1390   18.6670 C   0  0  0  0  0
   28.5200   15.4850   18.6020 C   0  0  0  0  0
   28.6700   16.2560   17.4410 C   0  0  0  0  0
   30.2844   16.9453   13.5269 H   0  0  0  0  0
   30.4132   15.4100   14.1061 H   0  0  0  0  0
   30.9462   16.6781   15.0102 H   0  0  0  0  0
   28.1917   16.1575   14.2305 H   0  0  0  0  0
   28.7734   17.5413   15.2171 H   0  0  0  0  0
   29.2496   13.7780   15.2991 H   0  0  0  0  0
   28.7973   12.4356   17.3148 H   0  0  0  0  0
   28.6312   13.5853   19.5987 H   0  0  0  0  0
   28.2817   16.0082   19.5210 H   0  0  0  0  0
   28.6423   17.3362   17.5277 H   0  0  0  0  0
  1  2  1  0  0  0
  2  3  1  0  0  0
  3  4  4  0  0  0
  3  8  4  0  0  0
  4  5  4  0  0  0
  5  6  4  0  0  0
  6  7  4  0  0  0
  7  8  4  0  0  0
  1  9  1  0  0  0
  1 10  1  0  0  0
  1 11  1  0  0  0
  2 12  1  0  0  0
  2 13  1  0  0  0
  4 14  1  0  0  0
  5 15  1  0  0  0
  6 16  1  0  0  0
  7 17  1  0  0  0
  8 18  1  0  0  0
M  END
$$$$
