1kv5_ligand
  -I-interpret- 

 11 10  0  0  0  0  0  0  0  0999 V2000
  -10.7190   -6.8840   49.1150 P   0  0  0  0  0
   -9.3330   -6.9950   48.2510 O   0  0  0  0  0
  -10.5790   -7.9230   50.1910 O   0  0  0  0  0
  -11.8880   -7.0630   48.1350 O   0  5  0  0  0
  -10.8080   -5.4900   49.7160 O   0  5  0  0  0
   -8.6610   -8.2300   48.2170 C   0  0  0  0  0
   -7.3980   -7.9930   47.4570 C   0  0  0  0  0
   -6.2480   -8.6200   47.8500 O   0  5  0  0  0
   -7.4160   -7.1420   46.4690 O   0  0  0  0  0
   -8.4230   -8.5703   49.2356 H   0  0  0  0  0
   -9.2683   -8.9880   47.7007 H   0  0  0  0  0
  1  2  1  0  0  0
  1  3  2  0  0  0
  1  4  1  0  0  0
  1  5  1  0  0  0
  2  6  1  0  0  0
  6  7  1  0  0  0
  7  8  1  0  0  0
  7  9  2  0  0  0
  6 10  1  0  0  0
  6 11  1  0  0  0
M  END
$$$$
