### 
### Created by X-TOOL on Mon Oct 24 22:27:15 2005
### 

@<TRIPOS>MOLECULE
1kv5_ligand
   11    10     1     0     0
SMALL
GAST_HUCK


@<TRIPOS>ATOM
      1 P         -10.7190   -6.8840   49.1150 P.3       1 SUB1        0.208
      2 O1P        -9.3330   -6.9950   48.2510 O.3       1 SUB1       -0.306
      3 O2P       -10.5790   -7.9230   50.1910 O.co2     1 SUB1       -0.535
      4 O3P       -11.8880   -7.0630   48.1350 O.co2     1 SUB1       -0.535
      5 O4P       -10.8080   -5.4900   49.7160 O.co2     1 SUB1       -0.535
      6 C2         -8.6610   -8.2300   48.2170 C.3       1 SUB1        0.106
      7 C1         -7.3980   -7.9930   47.4570 C.2       1 SUB1        0.058
      8 O1         -6.2480   -8.6200   47.8500 O.co2     1 SUB1       -0.564
      9 O2         -7.4160   -7.1420   46.4690 O.co2     1 SUB1       -0.564
     10 H61        -8.4230   -8.5703   49.2356 H         1 SUB1        0.083
     11 H62        -9.2683   -8.9880   47.7007 H         1 SUB1        0.083
@<TRIPOS>BOND
     1    1    2 1  
     2    1    3 2  
     3    1    4 2  
     4    1    5 2  
     5    2    6 1  
     6    6    7 1  
     7    7    8 2  
     8    7    9 2  
     9    6   10 1  
    10    6   11 1  
@<TRIPOS>SUBSTRUCTURE
     1 SUB1        1 GROUP

