### 
### Created by X-TOOL on Tue Oct 25 00:58:58 2005
### 

@<TRIPOS>MOLECULE
1n4h_ligand
   49    49     1     0     0
SMALL
GAST_HUCK


@<TRIPOS>ATOM
      1 C1         22.6760   32.3860    7.5850 C.3       1 SUB1       -0.154
      2 C2         21.9060   33.5740    6.8750 C.3       1 SUB1       -0.134
      3 C3         21.6370   33.4550    5.3740 C.3       1 SUB1       -0.046
      4 C4         22.7900   32.9260    4.5060 C.3       1 SUB1        0.035
      5 C5         23.8910   32.0960    5.2550 C.2       1 SUB1        0.014
      6 C6         23.8620   31.8350    6.6380 C.2       1 SUB1       -0.087
      7 C7         24.9190   31.0450    7.3340 C.2       1 SUB1       -0.067
      8 C8         25.0460   29.7100    7.5730 C.2       1 SUB1       -0.048
      9 C9         26.0800   29.0940    8.3970 C.2       1 SUB1       -0.033
     10 C10        26.0660   27.7250    8.5310 C.2       1 SUB1       -0.048
     11 C11        27.0510   27.0180    9.3290 C.2       1 SUB1       -0.058
     12 C12        27.0700   25.6940    9.4400 C.2       1 SUB1       -0.047
     13 C13        28.0570   24.9770   10.2420 C.2       1 SUB1       -0.025
     14 C14        27.9510   23.6260   10.2240 C.2       1 SUB1       -0.015
     15 C15        28.7050   22.5640   10.8700 C.2       1 SUB1        0.081
     16 C16        21.6500   31.2540    7.8880 C.3       1 SUB1       -0.151
     17 C17        23.2350   32.9900    8.9100 C.3       1 SUB1       -0.151
     18 C18        24.9480   31.6510    4.2340 C.3       1 SUB1        0.026
     19 C19        27.1570   29.9910    9.0840 C.3       1 SUB1       -0.023
     20 C20        29.1590   25.7760   11.0430 C.3       1 SUB1       -0.021
     21 O1         28.3770   21.4240   10.6260 O.co2     1 SUB1       -0.534
     22 O2         29.6410   22.7790   11.6280 O.co2     1 SUB1       -0.534
     23 H21        20.9269   33.6787    7.3652 H         1 SUB1       -0.002
     24 H22        22.4975   34.4901    7.0194 H         1 SUB1       -0.002
     25 H31        20.7875   32.7705    5.2338 H         1 SUB1        0.030
     26 H32        21.3798   34.4547    4.9941 H         1 SUB1        0.030
     27 H41        22.3637   32.2747    3.7288 H         1 SUB1        0.072
     28 H42        23.2919   33.7868    4.0401 H         1 SUB1        0.072
     29 H71        25.7399   31.6461    7.7223 H         1 SUB1        0.071
     30 H81        24.3153   29.0480    7.1107 H         1 SUB1        0.057
     31 H101       25.2912   27.1534    8.0221 H         1 SUB1        0.056
     32 H111       27.8060   27.5969    9.8589 H         1 SUB1        0.072
     33 H121       26.3146   25.1172    8.9083 H         1 SUB1        0.056
     34 H141       27.1364   23.2624    9.5994 H         1 SUB1        0.067
     35 H161       22.1714   30.4209    8.3820 H         1 SUB1       -0.006
     36 H162       20.8625   31.6308    8.5572 H         1 SUB1       -0.006
     37 H163       21.2036   30.8915    6.9503 H         1 SUB1       -0.006
     38 H171       23.9551   33.7848    8.6655 H         1 SUB1       -0.006
     39 H172       22.4138   33.4205    9.5018 H         1 SUB1       -0.006
     40 H173       23.7471   32.2092    9.4914 H         1 SUB1       -0.006
     41 H181       25.7236   31.0682    4.7524 H         1 SUB1        0.069
     42 H182       24.4821   31.0206    3.4623 H         1 SUB1        0.069
     43 H183       25.4135   32.5319    3.7679 H         1 SUB1        0.069
     44 H191       26.9610   31.0434    8.8309 H         1 SUB1        0.044
     45 H192       27.1052   29.8696   10.1760 H         1 SUB1        0.044
     46 H193       28.1593   29.7166    8.7233 H         1 SUB1        0.044
     47 H201       29.0098   26.8535   10.8796 H         1 SUB1        0.045
     48 H202       29.0708   25.5612   12.1182 H         1 SUB1        0.045
     49 H203       30.1605   25.4948   10.6853 H         1 SUB1        0.045
@<TRIPOS>BOND
     1    1    2 1  
     2    1    6 1  
     3    1   16 1  
     4    1   17 1  
     5    2    3 1  
     6    3    4 1  
     7    4    5 1  
     8    5    6 2  
     9    5   18 1  
    10    6    7 1  
    11    7    8 2  
    12    8    9 1  
    13    9   10 2  
    14    9   19 1  
    15   10   11 1  
    16   11   12 2  
    17   12   13 1  
    18   13   14 2  
    19   13   20 1  
    20   14   15 1  
    21   15   21 2  
    22   15   22 2  
    23    2   23 1  
    24    2   24 1  
    25    3   25 1  
    26    3   26 1  
    27    4   27 1  
    28    4   28 1  
    29    7   29 1  
    30    8   30 1  
    31   10   31 1  
    32   11   32 1  
    33   12   33 1  
    34   14   34 1  
    35   16   35 1  
    36   16   36 1  
    37   16   37 1  
    38   17   38 1  
    39   17   39 1  
    40   17   40 1  
    41   18   41 1  
    42   18   42 1  
    43   18   43 1  
    44   19   44 1  
    45   19   45 1  
    46   19   46 1  
    47   20   47 1  
    48   20   48 1  
    49   20   49 1  
@<TRIPOS>SUBSTRUCTURE
     1 SUB1        1 GROUP

