1n4h_ligand
  -I-interpret- 

 49 49  0  0  0  0  0  0  0  0999 V2000
   22.6760   32.3860    7.5850 C   0  0  0  0  0
   21.9060   33.5740    6.8750 C   0  0  0  0  0
   21.6370   33.4550    5.3740 C   0  0  0  0  0
   22.7900   32.9260    4.5060 C   0  0  0  0  0
   23.8910   32.0960    5.2550 C   0  0  0  0  0
   23.8620   31.8350    6.6380 C   0  0  0  0  0
   24.9190   31.0450    7.3340 C   0  0  0  0  0
   25.0460   29.7100    7.5730 C   0  0  0  0  0
   26.0800   29.0940    8.3970 C   0  0  0  0  0
   26.0660   27.7250    8.5310 C   0  0  0  0  0
   27.0510   27.0180    9.3290 C   0  0  0  0  0
   27.0700   25.6940    9.4400 C   0  0  0  0  0
   28.0570   24.9770   10.2420 C   0  0  0  0  0
   27.9510   23.6260   10.2240 C   0  0  0  0  0
   28.7050   22.5640   10.8700 C   0  0  0  0  0
   21.6500   31.2540    7.8880 C   0  0  0  0  0
   23.2350   32.9900    8.9100 C   0  0  0  0  0
   24.9480   31.6510    4.2340 C   0  0  0  0  0
   27.1570   29.9910    9.0840 C   0  0  0  0  0
   29.1590   25.7760   11.0430 C   0  0  0  0  0
   28.3770   21.4240   10.6260 O   0  0  0  0  0
   29.6410   22.7790   11.6280 O   0  5  0  0  0
   20.9269   33.6787    7.3652 H   0  0  0  0  0
   22.4975   34.4901    7.0194 H   0  0  0  0  0
   20.7875   32.7705    5.2338 H   0  0  0  0  0
   21.3798   34.4547    4.9941 H   0  0  0  0  0
   22.3637   32.2747    3.7288 H   0  0  0  0  0
   23.2919   33.7868    4.0401 H   0  0  0  0  0
   25.7399   31.6461    7.7223 H   0  0  0  0  0
   24.3153   29.0480    7.1107 H   0  0  0  0  0
   25.2912   27.1534    8.0221 H   0  0  0  0  0
   27.8060   27.5969    9.8589 H   0  0  0  0  0
   26.3146   25.1172    8.9083 H   0  0  0  0  0
   27.1364   23.2624    9.5994 H   0  0  0  0  0
   22.1714   30.4209    8.3820 H   0  0  0  0  0
   20.8625   31.6308    8.5572 H   0  0  0  0  0
   21.2036   30.8915    6.9503 H   0  0  0  0  0
   23.9551   33.7848    8.6655 H   0  0  0  0  0
   22.4138   33.4205    9.5018 H   0  0  0  0  0
   23.7471   32.2092    9.4914 H   0  0  0  0  0
   25.7236   31.0682    4.7524 H   0  0  0  0  0
   24.4821   31.0206    3.4623 H   0  0  0  0  0
   25.4135   32.5319    3.7679 H   0  0  0  0  0
   26.9610   31.0434    8.8309 H   0  0  0  0  0
   27.1052   29.8696   10.1760 H   0  0  0  0  0
   28.1593   29.7166    8.7233 H   0  0  0  0  0
   29.0098   26.8535   10.8796 H   0  0  0  0  0
   29.0708   25.5612   12.1182 H   0  0  0  0  0
   30.1605   25.4948   10.6853 H   0  0  0  0  0
  1  2  1  0  0  0
  1  6  1  0  0  0
  1 16  1  0  0  0
  1 17  1  0  0  0
  2  3  1  0  0  0
  3  4  1  0  0  0
  4  5  1  0  0  0
  5  6  2  0  0  0
  5 18  1  0  0  0
  6  7  1  0  0  0
  7  8  2  0  0  0
  8  9  1  0  0  0
  9 10  2  0  0  0
  9 19  1  0  0  0
 10 11  1  0  0  0
 11 12  2  0  0  0
 12 13  1  0  0  0
 13 14  2  0  0  0
 13 20  1  0  0  0
 14 15  1  0  0  0
 15 21  2  0  0  0
 15 22  1  0  0  0
  2 23  1  0  0  0
  2 24  1  0  0  0
  3 25  1  0  0  0
  3 26  1  0  0  0
  4 27  1  0  0  0
  4 28  1  0  0  0
  7 29  1  0  0  0
  8 30  1  0  0  0
 10 31  1  0  0  0
 11 32  1  0  0  0
 12 33  1  0  0  0
 14 34  1  0  0  0
 16 35  1  0  0  0
 16 36  1  0  0  0
 16 37  1  0  0  0
 17 38  1  0  0  0
 17 39  1  0  0  0
 17 40  1  0  0  0
 18 41  1  0  0  0
 18 42  1  0  0  0
 18 43  1  0  0  0
 19 44  1  0  0  0
 19 45  1  0  0  0
 19 46  1  0  0  0
 20 47  1  0  0  0
 20 48  1  0  0  0
 20 49  1  0  0  0
M  END
$$$$
