### 
### Created by X-TOOL on Mon Oct 24 22:00:58 2005
### 

@<TRIPOS>MOLECULE
1w1d_ligand
   36    36     1     0     0
SMALL
GAST_HUCK


@<TRIPOS>ATOM
      1 C1         11.0900   35.1680    6.1500 C.3       1 SUB1        0.134
      2 O1         10.9840   36.5430    5.8770 O.3       1 SUB1       -0.314
      3 C2         10.7920   34.8680    7.6300 C.3       1 SUB1        0.121
      4 O2         11.8410   35.4460    8.4260 O.3       1 SUB1       -0.386
      5 C3         10.8110   33.3430    7.7720 C.3       1 SUB1        0.138
      6 O3         10.4540   33.0590    9.1420 O.3       1 SUB1       -0.313
      7 C4         12.1940   32.8060    7.4700 C.3       1 SUB1        0.142
      8 O4         12.1890   31.3620    7.5290 O.3       1 SUB1       -0.313
      9 C5         12.5350   33.0910    5.9850 C.3       1 SUB1        0.138
     10 O5         13.9370   32.7700    5.8920 O.3       1 SUB1       -0.313
     11 C6         12.4670   34.6010    5.7420 C.3       1 SUB1        0.121
     12 O6         12.6710   34.8450    4.3340 O.3       1 SUB1       -0.386
     13 P1          9.6000   37.1370    5.2920 P.3       1 SUB1        0.206
     14 O1P         9.3380   36.5010    3.9440 O.co2     1 SUB1       -0.535
     15 O2P         8.5000   36.7630    6.2360 O.co2     1 SUB1       -0.535
     16 O3P         9.9080   38.6070    5.1690 O.co2     1 SUB1       -0.535
     17 P3          9.1110   32.2990    9.4990 P.3       1 SUB1        0.206
     18 O4P         9.3380   30.8450    8.8310 O.co2     1 SUB1       -0.535
     19 O5P         7.9320   32.9600    8.8440 O.co2     1 SUB1       -0.535
     20 O6P         9.1310   32.1910   10.9920 O.co2     1 SUB1       -0.535
     21 P4         12.6870   30.5350    8.8140 P.3       1 SUB1        0.206
     22 O7P        13.4250   31.4790    9.8340 O.co2     1 SUB1       -0.535
     23 O8P        11.4720   29.8390    9.3540 O.co2     1 SUB1       -0.535
     24 O9P        13.7140   29.6300    8.2620 O.co2     1 SUB1       -0.535
     25 P5         14.6140   31.6250    5.0110 P.3       1 SUB1        0.206
     26 UNK_26     13.5120   31.2560    4.0960 O.co2     1 SUB1       -0.535
     27 UNK_27     14.8480   30.5900    6.1290 O.co2     1 SUB1       -0.535
     28 UNK_28     15.8360   32.0400    4.3620 O.co2     1 SUB1       -0.535
     29 H11        10.3285   34.6532    5.5458 H         1 SUB1        0.070
     30 H31         9.8149   35.2758    7.9284 H         1 SUB1        0.065
     31 H41        11.6734   35.2704    9.3444 H         1 SUB1        0.210
     32 H51        10.0822   32.8871    7.0857 H         1 SUB1        0.071
     33 H71        12.9366   33.2410    8.1550 H         1 SUB1        0.071
     34 H91        11.9042   32.5220    5.2862 H         1 SUB1        0.071
     35 H111       13.2539   35.1008    6.3258 H         1 SUB1        0.065
     36 H121       12.6316   35.7793    4.1667 H         1 SUB1        0.210
@<TRIPOS>BOND
     1    1    2 1  
     2    1    3 1  
     3    1   11 1  
     4    2   13 1  
     5    3    4 1  
     6    3    5 1  
     7    5    6 1  
     8    5    7 1  
     9    6   17 1  
    10    7    8 1  
    11    7    9 1  
    12    8   21 1  
    13    9   10 1  
    14    9   11 1  
    15   10   25 1  
    16   11   12 1  
    17   13   14 2  
    18   13   15 2  
    19   13   16 2  
    20   17   18 2  
    21   17   19 2  
    22   17   20 2  
    23   21   22 2  
    24   21   23 2  
    25   21   24 2  
    26   25   26 2  
    27   25   27 2  
    28   25   28 2  
    29    1   29 1  
    30    3   30 1  
    31    4   31 1  
    32    5   32 1  
    33    7   33 1  
    34    9   34 1  
    35   11   35 1  
    36   12   36 1  
@<TRIPOS>SUBSTRUCTURE
     1 SUB1        1 GROUP

