1w1d_ligand
  -I-interpret- 

 36 36  0  0  0  0  0  0  0  0999 V2000
   11.0900   35.1680    6.1500 C   0  0  0  0  0
   10.9840   36.5430    5.8770 O   0  0  0  0  0
   10.7920   34.8680    7.6300 C   0  0  0  0  0
   11.8410   35.4460    8.4260 O   0  0  0  0  0
   10.8110   33.3430    7.7720 C   0  0  0  0  0
   10.4540   33.0590    9.1420 O   0  0  0  0  0
   12.1940   32.8060    7.4700 C   0  0  0  0  0
   12.1890   31.3620    7.5290 O   0  0  0  0  0
   12.5350   33.0910    5.9850 C   0  0  0  0  0
   13.9370   32.7700    5.8920 O   0  0  0  0  0
   12.4670   34.6010    5.7420 C   0  0  0  0  0
   12.6710   34.8450    4.3340 O   0  0  0  0  0
    9.6000   37.1370    5.2920 P   0  0  0  0  0
    9.3380   36.5010    3.9440 O   0  5  0  0  0
    8.5000   36.7630    6.2360 O   0  0  0  0  0
    9.9080   38.6070    5.1690 O   0  5  0  0  0
    9.1110   32.2990    9.4990 P   0  0  0  0  0
    9.3380   30.8450    8.8310 O   0  5  0  0  0
    7.9320   32.9600    8.8440 O   0  5  0  0  0
    9.1310   32.1910   10.9920 O   0  0  0  0  0
   12.6870   30.5350    8.8140 P   0  0  0  0  0
   13.4250   31.4790    9.8340 O   0  5  0  0  0
   11.4720   29.8390    9.3540 O   0  5  0  0  0
   13.7140   29.6300    8.2620 O   0  0  0  0  0
   14.6140   31.6250    5.0110 P   0  0  0  0  0
   13.5120   31.2560    4.0960 O   0  5  0  0  0
   14.8480   30.5900    6.1290 O   0  5  0  0  0
   15.8360   32.0400    4.3620 O   0  0  0  0  0
   10.3285   34.6532    5.5458 H   0  0  0  0  0
    9.8149   35.2758    7.9284 H   0  0  0  0  0
   11.6734   35.2704    9.3444 H   0  0  0  0  0
   10.0822   32.8871    7.0857 H   0  0  0  0  0
   12.9366   33.2410    8.1550 H   0  0  0  0  0
   11.9042   32.5220    5.2862 H   0  0  0  0  0
   13.2539   35.1008    6.3258 H   0  0  0  0  0
   12.6316   35.7793    4.1667 H   0  0  0  0  0
  1  2  1  0  0  0
  1  3  1  0  0  0
  1 11  1  0  0  0
  2 13  1  0  0  0
  3  4  1  0  0  0
  3  5  1  0  0  0
  5  6  1  0  0  0
  5  7  1  0  0  0
  6 17  1  0  0  0
  7  8  1  0  0  0
  7  9  1  0  0  0
  8 21  1  0  0  0
  9 10  1  0  0  0
  9 11  1  0  0  0
 10 25  1  0  0  0
 11 12  1  0  0  0
 13 14  1  0  0  0
 13 15  2  0  0  0
 13 16  1  0  0  0
 17 18  1  0  0  0
 17 19  1  0  0  0
 17 20  2  0  0  0
 21 22  1  0  0  0
 21 23  1  0  0  0
 21 24  2  0  0  0
 25 26  1  0  0  0
 25 27  1  0  0  0
 25 28  2  0  0  0
  1 29  1  0  0  0
  3 30  1  0  0  0
  4 31  1  0  0  0
  5 32  1  0  0  0
  7 33  1  0  0  0
  9 34  1  0  0  0
 11 35  1  0  0  0
 12 36  1  0  0  0
M  END
$$$$
