### 
### Created by X-TOOL on Tue Oct 25 00:06:45 2005
### 

@<TRIPOS>MOLECULE
1msm_ligand
   78    81     1     0     0
SMALL
GAST_HUCK


@<TRIPOS>ATOM
      1 C1         11.0870   17.6810   19.1870 C.ar      1 SUB1       -0.036
      2 C2         11.1600   18.3330   17.9470 C.ar      1 SUB1       -0.072
      3 C3         12.2200   19.2280   17.6880 C.ar      1 SUB1       -0.060
      4 C4         13.2250   19.4840   18.6690 C.ar      1 SUB1        0.043
      5 C5         13.1490   18.8170   19.9430 C.ar      1 SUB1        0.004
      6 C6         12.0660   17.9180   20.1730 C.ar      1 SUB1        0.095
      7 C9         14.1770   19.0330   21.0450 C.3       1 SUB1       -0.029
      8 C13        14.3140   20.4260   18.3250 C.2       1 SUB1        0.198
      9 N14        13.9020   21.6620   17.8960 N.am      1 SUB1       -0.278
     10 C15        14.8130   22.7050   17.4490 C.3       1 SUB1        0.094
     11 C16        14.2380   23.3430   16.1530 C.3       1 SUB1        0.009
     12 C17        15.0240   23.6720   18.6270 C.3       1 SUB1        0.168
     13 C19        16.3500   24.4590   18.5220 C.2       1 SUB1        0.213
     14 N20        17.5050   23.8090   18.8830 N.am      1 SUB1       -0.238
     15 C21        18.7820   24.5770   18.8680 C.3       1 SUB1        0.149
     16 C22        19.6690   24.1440   20.0950 C.3       1 SUB1        0.053
     17 S23        19.1840   22.4500   20.3600 S.3       1 SUB1       -0.125
     18 C24        17.4790   22.9050   20.0740 C.3       1 SUB1        0.083
     19 C27        13.9980   22.2990   15.0850 C.ar      1 SUB1       -0.041
     20 C30        15.0720   21.7190   14.3640 C.ar      1 SUB1       -0.060
     21 C31        14.8240   20.7370   13.3770 C.ar      1 SUB1       -0.069
     22 C32        13.4930   20.3240   13.1030 C.ar      1 SUB1       -0.069
     23 C33        12.4140   20.8960   13.8190 C.ar      1 SUB1       -0.069
     24 C34        12.6680   21.8800   14.8060 C.ar      1 SUB1       -0.060
     25 O41        13.9550   24.5840   18.6560 O.3       1 SUB1       -0.369
     26 O44        16.3110   25.6330   18.1470 O.2       1 SUB1       -0.394
     27 C45        19.3770   24.9630   21.3740 C.3       1 SUB1       -0.046
     28 C49        21.1890   24.1680   19.7940 C.3       1 SUB1       -0.046
     29 C53        19.4050   24.2990   17.4800 C.2       1 SUB1        0.205
     30 N55        20.2120   25.2820   17.0280 N.am      1 SUB1       -0.275
     31 C56        20.8690   25.1620   15.7380 C.3       1 SUB1        0.062
     32 O57        19.1540   23.2590   16.8780 O.2       1 SUB1       -0.394
     33 O60        11.9660   17.2650   21.3720 O.3       1 SUB1       -0.336
     34 O62        15.5100   20.1290   18.4130 O.2       1 SUB1       -0.389
     35 C63        20.6350   26.3790   14.8860 C.ar      1 SUB1       -0.019
     36 C66        21.7170   27.2840   14.7060 C.ar      1 SUB1       -0.065
     37 C67        21.5650   28.4450   13.9180 C.ar      1 SUB1       -0.075
     38 C68        20.3250   28.7150   13.3010 C.ar      1 SUB1       -0.075
     39 C69        19.2350   27.8290   13.4680 C.ar      1 SUB1       -0.067
     40 C70        19.3680   26.6570   14.2570 C.ar      1 SUB1       -0.042
     41 C75        18.1610   25.7500   14.3960 C.3       1 SUB1       -0.034
     42 H11        10.2744   16.9922   19.3877 H         1 SUB1        0.056
     43 H21        10.4052   18.1501   17.1908 H         1 SUB1        0.054
     44 H31        12.2719   19.7293   16.7283 H         1 SUB1        0.056
     45 H71        14.9322   19.7518   20.6943 H         1 SUB1        0.038
     46 H72        13.6859   19.4385   21.9419 H         1 SUB1        0.038
     47 H73        14.6732   18.0816   21.2869 H         1 SUB1        0.038
     48 H91        12.9212   21.8572   17.8901 H         1 SUB1        0.185
     49 H101       15.7924   22.2653   17.2093 H         1 SUB1        0.063
     50 H111       13.2800   23.8327   16.3817 H         1 SUB1        0.045
     51 H112       14.9530   24.0819   15.7621 H         1 SUB1        0.045
     52 H121       15.0226   23.0984   19.5655 H         1 SUB1        0.086
     53 H151       18.5825   25.6560   18.9449 H         1 SUB1        0.082
     54 H181       17.0786   23.4292   20.9542 H         1 SUB1        0.064
     55 H182       16.8806   22.0051   19.8690 H         1 SUB1        0.064
     56 H201       16.0896   22.0301   14.5705 H         1 SUB1        0.056
     57 H211       15.6505   20.2991   12.8291 H         1 SUB1        0.060
     58 H221       13.3035   19.5714   12.3462 H         1 SUB1        0.056
     59 H231       11.3971   20.5822   13.6128 H         1 SUB1        0.060
     60 H241       11.8410   22.3175   15.3535 H         1 SUB1        0.056
     61 H251       13.9599   25.1014   17.8593 H         1 SUB1        0.213
     62 H271       20.0301   24.6067   22.1843 H         1 SUB1        0.024
     63 H272       19.5809   26.0284   21.1919 H         1 SUB1        0.024
     64 H273       18.3275   24.8280   21.6744 H         1 SUB1        0.024
     65 H281       21.7374   23.8550   20.6947 H         1 SUB1        0.024
     66 H282       21.4201   23.4721   18.9741 H         1 SUB1        0.024
     67 H283       21.5012   25.1867   19.5205 H         1 SUB1        0.024
     68 H301       20.3587   26.0992   17.5854 H         1 SUB1        0.188
     69 H311       21.9524   25.0483   15.8903 H         1 SUB1        0.067
     70 H312       20.4709   24.2849   15.2068 H         1 SUB1        0.067
     71 H331       11.1962   16.7085   21.3650 H         1 SUB1        0.246
     72 H361       22.6703   27.0797   15.1798 H         1 SUB1        0.054
     73 H371       22.3976   29.1267   13.7873 H         1 SUB1        0.054
     74 H381       20.2070   29.6064   12.6956 H         1 SUB1        0.054
     75 H391       18.2879   28.0477   12.9881 H         1 SUB1        0.054
     76 H411       18.4277   24.8940   15.0333 H         1 SUB1        0.038
     77 H412       17.3307   26.2995   14.8635 H         1 SUB1        0.038
     78 H413       17.8551   25.3785   13.4069 H         1 SUB1        0.038
@<TRIPOS>BOND
     1    1    2 ar 
     2    1    6 ar 
     3    2    3 ar 
     4    3    4 ar 
     5    4    5 ar 
     6    4    8 1  
     7    5    6 ar 
     8    5    7 1  
     9    6   33 1  
    10    8    9 am 
    11    8   34 2  
    12    9   10 1  
    13   10   11 1  
    14   10   12 1  
    15   11   19 1  
    16   12   13 1  
    17   12   25 1  
    18   13   14 am 
    19   13   26 2  
    20   14   15 1  
    21   14   18 1  
    22   15   16 1  
    23   15   29 1  
    24   16   17 1  
    25   16   27 1  
    26   16   28 1  
    27   17   18 1  
    28   19   20 ar 
    29   19   24 ar 
    30   20   21 ar 
    31   21   22 ar 
    32   22   23 ar 
    33   23   24 ar 
    34   29   30 am 
    35   29   32 2  
    36   30   31 1  
    37   31   35 1  
    38   35   36 ar 
    39   35   40 ar 
    40   36   37 ar 
    41   37   38 ar 
    42   38   39 ar 
    43   39   40 ar 
    44   40   41 1  
    45    1   42 1  
    46    2   43 1  
    47    3   44 1  
    48    7   45 1  
    49    7   46 1  
    50    7   47 1  
    51    9   48 1  
    52   10   49 1  
    53   11   50 1  
    54   11   51 1  
    55   12   52 1  
    56   15   53 1  
    57   18   54 1  
    58   18   55 1  
    59   20   56 1  
    60   21   57 1  
    61   22   58 1  
    62   23   59 1  
    63   24   60 1  
    64   25   61 1  
    65   27   62 1  
    66   27   63 1  
    67   27   64 1  
    68   28   65 1  
    69   28   66 1  
    70   28   67 1  
    71   30   68 1  
    72   31   69 1  
    73   31   70 1  
    74   33   71 1  
    75   36   72 1  
    76   37   73 1  
    77   38   74 1  
    78   39   75 1  
    79   41   76 1  
    80   41   77 1  
    81   41   78 1  
@<TRIPOS>SUBSTRUCTURE
     1 SUB1        1 GROUP

