1msm_ligand
  -I-interpret- 

 78 81  0  0  0  0  0  0  0  0999 V2000
   11.0870   17.6810   19.1870 C   0  0  0  0  0
   11.1600   18.3330   17.9470 C   0  0  0  0  0
   12.2200   19.2280   17.6880 C   0  0  0  0  0
   13.2250   19.4840   18.6690 C   0  0  0  0  0
   13.1490   18.8170   19.9430 C   0  0  0  0  0
   12.0660   17.9180   20.1730 C   0  0  0  0  0
   14.1770   19.0330   21.0450 C   0  0  0  0  0
   14.3140   20.4260   18.3250 C   0  0  0  0  0
   13.9020   21.6620   17.8960 N   0  0  0  0  0
   14.8130   22.7050   17.4490 C   0  0  0  0  0
   14.2380   23.3430   16.1530 C   0  0  0  0  0
   15.0240   23.6720   18.6270 C   0  0  0  0  0
   16.3500   24.4590   18.5220 C   0  0  0  0  0
   17.5050   23.8090   18.8830 N   0  0  0  0  0
   18.7820   24.5770   18.8680 C   0  0  0  0  0
   19.6690   24.1440   20.0950 C   0  0  0  0  0
   19.1840   22.4500   20.3600 S   0  0  0  0  0
   17.4790   22.9050   20.0740 C   0  0  0  0  0
   13.9980   22.2990   15.0850 C   0  0  0  0  0
   15.0720   21.7190   14.3640 C   0  0  0  0  0
   14.8240   20.7370   13.3770 C   0  0  0  0  0
   13.4930   20.3240   13.1030 C   0  0  0  0  0
   12.4140   20.8960   13.8190 C   0  0  0  0  0
   12.6680   21.8800   14.8060 C   0  0  0  0  0
   13.9550   24.5840   18.6560 O   0  0  0  0  0
   16.3110   25.6330   18.1470 O   0  0  0  0  0
   19.3770   24.9630   21.3740 C   0  0  0  0  0
   21.1890   24.1680   19.7940 C   0  0  0  0  0
   19.4050   24.2990   17.4800 C   0  0  0  0  0
   20.2120   25.2820   17.0280 N   0  0  0  0  0
   20.8690   25.1620   15.7380 C   0  0  0  0  0
   19.1540   23.2590   16.8780 O   0  0  0  0  0
   11.9660   17.2650   21.3720 O   0  0  0  0  0
   15.5100   20.1290   18.4130 O   0  0  0  0  0
   20.6350   26.3790   14.8860 C   0  0  0  0  0
   21.7170   27.2840   14.7060 C   0  0  0  0  0
   21.5650   28.4450   13.9180 C   0  0  0  0  0
   20.3250   28.7150   13.3010 C   0  0  0  0  0
   19.2350   27.8290   13.4680 C   0  0  0  0  0
   19.3680   26.6570   14.2570 C   0  0  0  0  0
   18.1610   25.7500   14.3960 C   0  0  0  0  0
   10.2744   16.9922   19.3877 H   0  0  0  0  0
   10.4052   18.1501   17.1908 H   0  0  0  0  0
   12.2719   19.7293   16.7283 H   0  0  0  0  0
   14.9322   19.7518   20.6943 H   0  0  0  0  0
   13.6859   19.4385   21.9419 H   0  0  0  0  0
   14.6732   18.0816   21.2869 H   0  0  0  0  0
   12.9212   21.8572   17.8901 H   0  0  0  0  0
   15.7924   22.2653   17.2093 H   0  0  0  0  0
   13.2800   23.8327   16.3817 H   0  0  0  0  0
   14.9530   24.0819   15.7621 H   0  0  0  0  0
   15.0226   23.0984   19.5655 H   0  0  0  0  0
   18.5825   25.6560   18.9449 H   0  0  0  0  0
   17.0786   23.4292   20.9542 H   0  0  0  0  0
   16.8806   22.0051   19.8690 H   0  0  0  0  0
   16.0896   22.0301   14.5705 H   0  0  0  0  0
   15.6505   20.2991   12.8291 H   0  0  0  0  0
   13.3035   19.5714   12.3462 H   0  0  0  0  0
   11.3971   20.5822   13.6128 H   0  0  0  0  0
   11.8410   22.3175   15.3535 H   0  0  0  0  0
   13.9599   25.1014   17.8593 H   0  0  0  0  0
   20.0301   24.6067   22.1843 H   0  0  0  0  0
   19.5809   26.0284   21.1919 H   0  0  0  0  0
   18.3275   24.8280   21.6744 H   0  0  0  0  0
   21.7374   23.8550   20.6947 H   0  0  0  0  0
   21.4201   23.4721   18.9741 H   0  0  0  0  0
   21.5012   25.1867   19.5205 H   0  0  0  0  0
   20.3587   26.0992   17.5854 H   0  0  0  0  0
   21.9524   25.0483   15.8903 H   0  0  0  0  0
   20.4709   24.2849   15.2068 H   0  0  0  0  0
   11.1962   16.7085   21.3650 H   0  0  0  0  0
   22.6703   27.0797   15.1798 H   0  0  0  0  0
   22.3976   29.1267   13.7873 H   0  0  0  0  0
   20.2070   29.6064   12.6956 H   0  0  0  0  0
   18.2879   28.0477   12.9881 H   0  0  0  0  0
   18.4277   24.8940   15.0333 H   0  0  0  0  0
   17.3307   26.2995   14.8635 H   0  0  0  0  0
   17.8551   25.3785   13.4069 H   0  0  0  0  0
  1  2  4  0  0  0
  1  6  4  0  0  0
  2  3  4  0  0  0
  3  4  4  0  0  0
  4  5  4  0  0  0
  4  8  1  0  0  0
  5  6  4  0  0  0
  5  7  1  0  0  0
  6 33  1  0  0  0
  8  9  1  0  0  0
  8 34  2  0  0  0
  9 10  1  0  0  0
 10 11  1  0  0  0
 10 12  1  0  0  0
 11 19  1  0  0  0
 12 13  1  0  0  0
 12 25  1  0  0  0
 13 14  1  0  0  0
 13 26  2  0  0  0
 14 15  1  0  0  0
 14 18  1  0  0  0
 15 16  1  0  0  0
 15 29  1  0  0  0
 16 17  1  0  0  0
 16 27  1  0  0  0
 16 28  1  0  0  0
 17 18  1  0  0  0
 19 20  4  0  0  0
 19 24  4  0  0  0
 20 21  4  0  0  0
 21 22  4  0  0  0
 22 23  4  0  0  0
 23 24  4  0  0  0
 29 30  1  0  0  0
 29 32  2  0  0  0
 30 31  1  0  0  0
 31 35  1  0  0  0
 35 36  4  0  0  0
 35 40  4  0  0  0
 36 37  4  0  0  0
 37 38  4  0  0  0
 38 39  4  0  0  0
 39 40  4  0  0  0
 40 41  1  0  0  0
  1 42  1  0  0  0
  2 43  1  0  0  0
  3 44  1  0  0  0
  7 45  1  0  0  0
  7 46  1  0  0  0
  7 47  1  0  0  0
  9 48  1  0  0  0
 10 49  1  0  0  0
 11 50  1  0  0  0
 11 51  1  0  0  0
 12 52  1  0  0  0
 15 53  1  0  0  0
 18 54  1  0  0  0
 18 55  1  0  0  0
 20 56  1  0  0  0
 21 57  1  0  0  0
 22 58  1  0  0  0
 23 59  1  0  0  0
 24 60  1  0  0  0
 25 61  1  0  0  0
 27 62  1  0  0  0
 27 63  1  0  0  0
 27 64  1  0  0  0
 28 65  1  0  0  0
 28 66  1  0  0  0
 28 67  1  0  0  0
 30 68  1  0  0  0
 31 69  1  0  0  0
 31 70  1  0  0  0
 33 71  1  0  0  0
 36 72  1  0  0  0
 37 73  1  0  0  0
 38 74  1  0  0  0
 39 75  1  0  0  0
 41 76  1  0  0  0
 41 77  1  0  0  0
 41 78  1  0  0  0
M  END
$$$$
