1rbo_ligand
  -I-interpret- 

 30 29  0  0  0  0  0  0  0  0999 V2000
  -36.5400   34.9940   29.1170 C   0  0  0  0  0
  -35.9610   34.5280   30.5170 C   0  0  0  0  0
  -35.6380   35.7590   31.5200 C   0  0  0  0  0
  -36.9440   36.5120   31.9780 C   0  0  0  0  0
  -36.7580   37.3650   33.2290 C   0  0  0  0  0
  -36.9110   33.5110   31.2420 C   0  0  0  0  0
  -36.6810   33.9040   28.1730 O   0  0  0  0  0
  -34.7180   33.9290   30.3210 O   0  0  0  0  0
  -34.8250   36.7160   30.8740 O   0  0  0  0  0
  -37.3540   37.3310   30.8980 O   0  0  0  0  0
  -37.9790   38.1270   33.4860 O   0  0  0  0  0
  -36.3500   32.6070   31.9170 O   0  5  0  0  0
  -38.1630   33.6150   31.1660 O   0  0  0  0  0
  -37.4110   33.9730   26.7720 P   0  0  0  0  0
  -38.0550   39.7040   33.7040 P   0  0  0  0  0
  -36.6090   35.1040   26.0680 O   0  5  0  0  0
  -38.8030   34.3950   26.9960 O   0  0  0  0  0
  -37.1470   32.7190   26.0240 O   0  5  0  0  0
  -37.3310   40.2360   32.4500 O   0  5  0  0  0
  -39.4890   40.1260   33.6960 O   0  5  0  0  0
  -37.2480   40.0020   34.9240 O   0  0  0  0  0
  -37.5333   35.4404   29.2718 H   0  0  0  0  0
  -35.8588   35.7378   28.6782 H   0  0  0  0  0
  -35.1047   35.3725   32.4009 H   0  0  0  0  0
  -37.7319   35.7706   32.1767 H   0  0  0  0  0
  -36.5536   36.7178   34.0946 H   0  0  0  0  0
  -35.9247   38.0675   33.0808 H   0  0  0  0  0
  -34.3748   33.6336   31.1562 H   0  0  0  0  0
  -35.2905   37.0725   30.1265 H   0  0  0  0  0
  -36.6913   37.9916   30.7336 H   0  0  0  0  0
  1  2  1  0  0  0
  1  7  1  0  0  0
  2  3  1  0  0  0
  2  6  1  0  0  0
  2  8  1  0  0  0
  3  4  1  0  0  0
  3  9  1  0  0  0
  4  5  1  0  0  0
  4 10  1  0  0  0
  5 11  1  0  0  0
  6 12  1  0  0  0
  6 13  2  0  0  0
  7 14  1  0  0  0
 11 15  1  0  0  0
 14 16  1  0  0  0
 14 17  2  0  0  0
 14 18  1  0  0  0
 15 19  1  0  0  0
 15 20  1  0  0  0
 15 21  2  0  0  0
  1 22  1  0  0  0
  1 23  1  0  0  0
  3 24  1  0  0  0
  4 25  1  0  0  0
  5 26  1  0  0  0
  5 27  1  0  0  0
  8 28  1  0  0  0
  9 29  1  0  0  0
 10 30  1  0  0  0
M  END
$$$$
