### 
### Created by X-TOOL on Tue Oct 25 01:51:52 2005
### 

@<TRIPOS>MOLECULE
1rbo_ligand
   30    29     1     0     0
SMALL
GAST_HUCK


@<TRIPOS>ATOM
      1 C1        -36.5400   34.9940   29.1170 C.3       1 SUB1        0.070
      2 C2        -35.9610   34.5280   30.5170 C.3       1 SUB1        0.156
      3 C3        -35.6380   35.7590   31.5200 C.3       1 SUB1        0.088
      4 C4        -36.9440   36.5120   31.9780 C.3       1 SUB1        0.099
      5 C5        -36.7580   37.3650   33.2290 C.3       1 SUB1        0.093
      6 C         -36.9110   33.5110   31.2420 C.2       1 SUB1        0.161
      7 O1        -36.6810   33.9040   28.1730 O.3       1 SUB1       -0.334
      8 O2        -34.7180   33.9290   30.3210 O.3       1 SUB1       -0.436
      9 O3        -34.8250   36.7160   30.8740 O.3       1 SUB1       -0.400
     10 O4        -37.3540   37.3310   30.8980 O.3       1 SUB1       -0.388
     11 O5        -37.9790   38.1270   33.4860 O.3       1 SUB1       -0.320
     12 O6        -36.3500   32.6070   31.9170 O.co2     1 SUB1       -0.463
     13 O7        -38.1630   33.6150   31.1660 O.co2     1 SUB1       -0.463
     14 P1        -37.4110   33.9730   26.7720 P.3       1 SUB1        0.204
     15 P2        -38.0550   39.7040   33.7040 P.3       1 SUB1        0.205
     16 O1P       -36.6090   35.1040   26.0680 O.co2     1 SUB1       -0.535
     17 O2P       -38.8030   34.3950   26.9960 O.co2     1 SUB1       -0.535
     18 O3P       -37.1470   32.7190   26.0240 O.co2     1 SUB1       -0.535
     19 O4P       -37.3310   40.2360   32.4500 O.co2     1 SUB1       -0.535
     20 O5P       -39.4890   40.1260   33.6960 O.co2     1 SUB1       -0.535
     21 O6P       -37.2480   40.0020   34.9240 O.co2     1 SUB1       -0.535
     22 H11       -37.5333   35.4404   29.2718 H         1 SUB1        0.048
     23 H12       -35.8588   35.7378   28.6782 H         1 SUB1        0.048
     24 H31       -35.1047   35.3725   32.4009 H         1 SUB1        0.049
     25 H41       -37.7319   35.7706   32.1767 H         1 SUB1        0.063
     26 H51       -36.5536   36.7178   34.0946 H         1 SUB1        0.064
     27 H52       -35.9247   38.0675   33.0808 H         1 SUB1        0.064
     28 H81       -34.3748   33.6336   31.1562 H         1 SUB1        0.187
     29 H91       -35.2905   37.0725   30.1265 H         1 SUB1        0.208
     30 H101      -36.6913   37.9916   30.7336 H         1 SUB1        0.210
@<TRIPOS>BOND
     1    1    2 1  
     2    1    7 1  
     3    2    3 1  
     4    2    6 1  
     5    2    8 1  
     6    3    4 1  
     7    3    9 1  
     8    4    5 1  
     9    4   10 1  
    10    5   11 1  
    11    6   12 2  
    12    6   13 2  
    13    7   14 1  
    14   11   15 1  
    15   14   16 2  
    16   14   17 2  
    17   14   18 2  
    18   15   19 2  
    19   15   20 2  
    20   15   21 2  
    21    1   22 1  
    22    1   23 1  
    23    3   24 1  
    24    4   25 1  
    25    5   26 1  
    26    5   27 1  
    27    8   28 1  
    28    9   29 1  
    29   10   30 1  
@<TRIPOS>SUBSTRUCTURE
     1 SUB1        1 GROUP

