### 
### Created by X-TOOL on Mon Oct 24 21:55:22 2005
### 

@<TRIPOS>MOLECULE
1n8v_ligand
   39    38     1     0     0
SMALL
GAST_HUCK


@<TRIPOS>ATOM
      1 O1         18.7430   23.9450   24.1990 O.3       1 SUB1       -0.395
      2 C1         18.8500   24.0610   25.6100 C.3       1 SUB1        0.044
      3 C2         19.0340   25.5260   25.9950 C.3       1 SUB1       -0.030
      4 C3         18.1300   25.9000   27.1620 C.3       1 SUB1       -0.051
      5 C4         18.7550   25.5480   28.5040 C.3       1 SUB1       -0.053
      6 C5         17.7040   25.5940   29.6090 C.3       1 SUB1       -0.053
      7 C6         16.9440   24.2710   29.7340 C.3       1 SUB1       -0.053
      8 C7         15.6900   24.3910   30.5990 C.3       1 SUB1       -0.053
      9 C8         14.6800   23.2810   30.3060 C.3       1 SUB1       -0.053
     10 C9         13.5600   23.2720   31.3410 C.3       1 SUB1       -0.053
     11 C10        12.4830   24.3030   31.0310 C.3       1 SUB1       -0.052
     12 C11        11.3100   24.2240   31.9910 C.3       1 SUB1       -0.043
     13 C12        10.1960   25.2010   31.6200 C.3       1 SUB1        0.003
     14 BR         10.5440   26.7090   32.1190 Br        1 SUB1       -0.092
     15 H11        18.6287   23.0313   23.9653 H         1 SUB1        0.209
     16 H21        19.7160   23.4799   25.9597 H         1 SUB1        0.056
     17 H22        17.9341   23.6724   26.0790 H         1 SUB1        0.056
     18 H31        18.7861   26.1593   25.1304 H         1 SUB1        0.029
     19 H32        20.0822   25.6934   26.2837 H         1 SUB1        0.029
     20 H41        17.1778   25.3587   27.0611 H         1 SUB1        0.027
     21 H42        17.9410   26.9832   27.1317 H         1 SUB1        0.027
     22 H51        19.5529   26.2698   28.7326 H         1 SUB1        0.026
     23 H52        19.1809   24.5352   28.4509 H         1 SUB1        0.026
     24 H61        16.9858   26.3959   29.3827 H         1 SUB1        0.026
     25 H62        18.2035   25.8081   30.5654 H         1 SUB1        0.026
     26 H71        17.6122   23.5225   30.1848 H         1 SUB1        0.026
     27 H72        16.6472   23.9392   28.7281 H         1 SUB1        0.026
     28 H81        15.2151   25.3635   30.4021 H         1 SUB1        0.026
     29 H82        15.9827   24.3335   31.6578 H         1 SUB1        0.026
     30 H91        15.1967   22.3101   30.3271 H         1 SUB1        0.026
     31 H92        14.2462   23.4439   29.3084 H         1 SUB1        0.026
     32 H101       13.9889   23.4939   32.3293 H         1 SUB1        0.026
     33 H102       13.1000   22.2729   31.3568 H         1 SUB1        0.026
     34 H111       12.1145   24.1319   30.0088 H         1 SUB1        0.027
     35 H112       12.9264   25.3075   31.0976 H         1 SUB1        0.027
     36 H121       11.6652   24.4598   33.0050 H         1 SUB1        0.027
     37 H122       10.9052   23.2014   31.9728 H         1 SUB1        0.027
     38 H131        9.2592   24.8736   32.0945 H         1 SUB1        0.038
     39 H132       10.0717   25.2048   30.5271 H         1 SUB1        0.038
@<TRIPOS>BOND
     1    1    2 1  
     2    2    3 1  
     3    3    4 1  
     4    4    5 1  
     5    5    6 1  
     6    6    7 1  
     7    7    8 1  
     8    8    9 1  
     9    9   10 1  
    10   10   11 1  
    11   11   12 1  
    12   12   13 1  
    13   13   14 1  
    14    1   15 1  
    15    2   16 1  
    16    2   17 1  
    17    3   18 1  
    18    3   19 1  
    19    4   20 1  
    20    4   21 1  
    21    5   22 1  
    22    5   23 1  
    23    6   24 1  
    24    6   25 1  
    25    7   26 1  
    26    7   27 1  
    27    8   28 1  
    28    8   29 1  
    29    9   30 1  
    30    9   31 1  
    31   10   32 1  
    32   10   33 1  
    33   11   34 1  
    34   11   35 1  
    35   12   36 1  
    36   12   37 1  
    37   13   38 1  
    38   13   39 1  
@<TRIPOS>SUBSTRUCTURE
     1 SUB1        1 GROUP

