### 
### Created by X-TOOL on Sun Jun  3 11:12:52 2007
### 

@<TRIPOS>MOLECULE
1wvc_ligand
   41    42     1     0     0
SMALL
GAST_HUCK


@<TRIPOS>ATOM
      1 N1        -10.6710   31.2460   53.3900 N.am      1 SUB1       -0.165
      2 C2         -9.7220   30.7760   54.2750 C.2       1 SUB1        0.251
      3 N3         -8.7770   29.9640   53.7250 N.2       1 SUB1       -0.277
      4 C4         -8.6690   29.5710   52.4000 C.2       1 SUB1        0.085
      5 C5         -9.7040   30.1040   51.5870 C.2       1 SUB1        0.008
      6 C6        -10.6220   30.8970   52.0680 C.2       1 SUB1        0.079
      7 O2         -9.6860   31.0540   55.4540 O.2       1 SUB1       -0.407
      8 N4         -7.7500   28.8330   52.0660 N.pl3     1 SUB1       -0.316
      9 C1        -11.7580   32.1220   53.8490 C.3       1 SUB1        0.212
     10 C2        -11.5990   33.5590   53.4160 C.3       1 SUB1        0.141
     11 O2        -10.8410   34.2990   54.3800 O.3       1 SUB1       -0.383
     12 C3        -13.0470   34.0570   53.5130 C.3       1 SUB1        0.115
     13 C4        -13.8170   32.8450   53.0200 C.3       1 SUB1        0.118
     14 O4        -12.9760   31.6980   53.2730 O.3       1 SUB1       -0.334
     15 O3        -13.3750   34.4000   54.8700 O.3       1 SUB1       -0.386
     16 C5        -14.3160   32.8600   51.5960 C.3       1 SUB1        0.102
     17 O5        -13.2290   32.8310   50.6570 O.3       1 SUB1       -0.280
     18 PA        -13.3620   33.7110   49.3200 P.3       1 SUB1        0.350
     19 O1A       -13.6170   35.1270   49.5760 O.co2     1 SUB1       -0.488
     20 O2A       -14.3720   33.2210   48.3560 O.co2     1 SUB1       -0.488
     21 O3A       -11.8220   33.6000   48.7430 O.3       1 SUB1       -0.186
     22 PB        -10.5820   34.3910   49.2560 P.3       1 SUB1        0.354
     23 O1B        -9.5090   33.4810   49.7480 O.co2     1 SUB1       -0.497
     24 O2B       -11.0500   35.2360   50.4080 O.co2     1 SUB1       -0.497
     25 O3B        -9.9460   35.3660   48.1100 O.3       1 SUB1       -0.297
     26 PG        -10.1270   35.2020   46.4860 P.3       1 SUB1        0.143
     27 O1G       -10.9100   33.9790   46.1100 O.co2     1 SUB1       -0.614
     28 O2G        -8.7240   35.1010   45.9810 O.co2     1 SUB1       -0.614
     29 O3G       -10.7600   36.3910   45.8710 O.co2     1 SUB1       -0.614
     30 H          -7.6599   28.5346   51.0843 H         1 SUB1        0.183
     31 H          -9.7326   29.8429   50.5291 H         1 SUB1        0.037
     32 H         -11.3777   31.2961   51.3915 H         1 SUB1        0.133
     33 H          -7.0674   28.5109   52.7669 H         1 SUB1        0.183
     34 H         -11.7393   32.0616   54.9372 H         1 SUB1        0.103
     35 H         -11.1075   33.6639   52.4488 H         1 SUB1        0.068
     36 H         -11.2942   34.2782   55.2260 H         1 SUB1        0.210
     37 H         -13.2603   34.9619   52.9440 H         1 SUB1        0.065
     38 H         -14.7577   32.8273   53.5703 H         1 SUB1        0.065
     39 H         -12.8658   35.1689   55.1366 H         1 SUB1        0.210
     40 H         -14.8838   33.7770   51.4387 H         1 SUB1        0.064
     41 H         -14.9333   31.9758   51.4371 H         1 SUB1        0.064
@<TRIPOS>BOND
     1    1    2 am 
     2    1    6 1  
     3    1    9 1  
     4    2    3 1  
     5    2    7 2  
     6    3    4 2  
     7    4    5 1  
     8    4    8 1  
     9    5    6 2  
    10    9   10 1  
    11    9   14 1  
    12   10   11 1  
    13   10   12 1  
    14   12   13 1  
    15   12   15 1  
    16   13   14 1  
    17   13   16 1  
    18   16   17 1  
    19   17   18 1  
    20   18   19 2  
    21   18   20 2  
    22   18   21 1  
    23   21   22 1  
    24   22   23 2  
    25   22   24 2  
    26   22   25 1  
    27   25   26 1  
    28   26   27 2  
    29   26   28 2  
    30   26   29 2  
    31    8   30 1  
    32    5   31 1  
    33    6   32 1  
    34    8   33 1  
    35    9   34 1  
    36   10   35 1  
    37   11   36 1  
    38   12   37 1  
    39   13   38 1  
    40   15   39 1  
    41   16   40 1  
    42   16   41 1  
@<TRIPOS>SUBSTRUCTURE
     1 SUB1        1 GROUP

