1wvc_ligand
  -I-interpret- 

 41 42  0  0  0  0  0  0  0  0999 V2000
  -10.6710   31.2460   53.3900 N   0  0  0  0  0
   -9.7220   30.7760   54.2750 C   0  0  0  0  0
   -8.7770   29.9640   53.7250 N   0  0  0  0  0
   -8.6690   29.5710   52.4000 C   0  0  0  0  0
   -9.7040   30.1040   51.5870 C   0  0  0  0  0
  -10.6220   30.8970   52.0680 C   0  0  0  0  0
   -9.6860   31.0540   55.4540 O   0  0  0  0  0
   -7.7500   28.8330   52.0660 N   0  0  0  0  0
  -11.7580   32.1220   53.8490 C   0  0  0  0  0
  -11.5990   33.5590   53.4160 C   0  0  0  0  0
  -10.8410   34.2990   54.3800 O   0  0  0  0  0
  -13.0470   34.0570   53.5130 C   0  0  0  0  0
  -13.8170   32.8450   53.0200 C   0  0  0  0  0
  -12.9760   31.6980   53.2730 O   0  0  0  0  0
  -13.3750   34.4000   54.8700 O   0  0  0  0  0
  -14.3160   32.8600   51.5960 C   0  0  0  0  0
  -13.2290   32.8310   50.6570 O   0  0  0  0  0
  -13.3620   33.7110   49.3200 P   0  0  0  0  0
  -13.6170   35.1270   49.5760 O   0  0  0  0  0
  -14.3720   33.2210   48.3560 O   0  5  0  0  0
  -11.8220   33.6000   48.7430 O   0  0  0  0  0
  -10.5820   34.3910   49.2560 P   0  0  0  0  0
   -9.5090   33.4810   49.7480 O   0  0  0  0  0
  -11.0500   35.2360   50.4080 O   0  5  0  0  0
   -9.9460   35.3660   48.1100 O   0  0  0  0  0
  -10.1270   35.2020   46.4860 P   0  0  0  0  0
  -10.9100   33.9790   46.1100 O   0  5  0  0  0
   -8.7240   35.1010   45.9810 O   0  5  0  0  0
  -10.7600   36.3910   45.8710 O   0  0  0  0  0
   -7.6599   28.5346   51.0843 H   0  0  0  0  0
   -9.7326   29.8429   50.5291 H   0  0  0  0  0
  -11.3777   31.2961   51.3915 H   0  0  0  0  0
   -7.0674   28.5109   52.7669 H   0  0  0  0  0
  -11.7393   32.0616   54.9372 H   0  0  0  0  0
  -11.1075   33.6639   52.4488 H   0  0  0  0  0
  -11.2942   34.2782   55.2260 H   0  0  0  0  0
  -13.2603   34.9619   52.9440 H   0  0  0  0  0
  -14.7577   32.8273   53.5703 H   0  0  0  0  0
  -12.8658   35.1689   55.1366 H   0  0  0  0  0
  -14.8838   33.7770   51.4387 H   0  0  0  0  0
  -14.9333   31.9758   51.4371 H   0  0  0  0  0
  1  2  1  0  0  0
  1  6  1  0  0  0
  1  9  1  0  0  0
  2  3  1  0  0  0
  2  7  2  0  0  0
  3  4  2  0  0  0
  4  5  1  0  0  0
  4  8  1  0  0  0
  5  6  2  0  0  0
  9 10  1  0  0  0
  9 14  1  0  0  0
 10 11  1  0  0  0
 10 12  1  0  0  0
 12 13  1  0  0  0
 12 15  1  0  0  0
 13 14  1  0  0  0
 13 16  1  0  0  0
 16 17  1  0  0  0
 17 18  1  0  0  0
 18 19  2  0  0  0
 18 20  1  0  0  0
 18 21  1  0  0  0
 21 22  1  0  0  0
 22 23  2  0  0  0
 22 24  1  0  0  0
 22 25  1  0  0  0
 25 26  1  0  0  0
 26 27  1  0  0  0
 26 28  1  0  0  0
 26 29  2  0  0  0
  8 30  1  0  0  0
  5 31  1  0  0  0
  6 32  1  0  0  0
  8 33  1  0  0  0
  9 34  1  0  0  0
 10 35  1  0  0  0
 11 36  1  0  0  0
 12 37  1  0  0  0
 13 38  1  0  0  0
 15 39  1  0  0  0
 16 40  1  0  0  0
 16 41  1  0  0  0
M  END
$$$$
