1e2k_ligand
  -I-interpret- 

 34 36  0  0  0  0  0  0  0  0999 V2000
   50.7941   36.2667    1.9178 H   0  0  0  0  0
   51.4815   35.0026   -1.5897 H   0  0  0  0  0
   43.5107   32.6572   -0.0397 H   0  0  0  0  0
   49.4186   35.2915   -0.7848 H   0  0  0  0  0
   47.7199   34.4278   -1.8172 H   0  0  0  0  0
   50.3650   35.7730    1.2290 O   0  0  0  0  0
   50.7440   34.6090   -2.0410 O   0  0  0  0  0
   45.4850   31.6870   -1.2610 O   0  0  0  0  0
   43.1910   34.5170    1.4590 O   0  0  0  0  0
   46.6500   33.2970   -0.0480 N   0  0  0  0  0
   44.3790   33.1100    0.1630 N   0  0  0  0  0
   50.1450   33.6030    0.1970 C   0  0  0  0  0
   49.7430   34.2920   -1.1100 C   0  0  0  0  0
   48.4730   33.6530   -1.6110 C   0  0  0  0  0
   47.9650   32.7100   -0.5190 C   0  0  0  0  0
   49.0050   32.6710    0.6400 C   0  0  0  0  0
   50.3270   32.1180    0.1530 C   0  0  0  0  0
   50.8100   34.3980    1.2750 C   0  0  0  0  0
   45.5520   32.6120   -0.4750 C   0  0  0  0  0
   44.3590   34.1810    1.0470 C   0  0  0  0  0
   45.5420   34.8400    1.4210 C   0  0  0  0  0
   46.6870   34.3520    0.8440 C   0  0  0  0  0
   45.6000   35.9960    2.3980 C   0  0  0  0  0
   48.6768   33.0856   -2.5311 H   0  0  0  0  0
   47.8124   31.6960   -0.9172 H   0  0  0  0  0
   48.6058   32.5526    1.6581 H   0  0  0  0  0
   51.0100   31.6303    0.8641 H   0  0  0  0  0
   50.3790   31.6028   -0.8175 H   0  0  0  0  0
   50.5554   33.9664    2.2542 H   0  0  0  0  0
   51.9001   34.3640    1.1315 H   0  0  0  0  0
   47.6450   34.8054    1.0941 H   0  0  0  0  0
   46.6429   36.3262    2.5138 H   0  0  0  0  0
   45.2076   35.6720    3.3732 H   0  0  0  0  0
   44.9918   36.8294    2.0165 H   0  0  0  0  0
  6  1  1  0  0  0
  7  2  1  0  0  0
 11  3  1  0  0  0
 13  4  1  0  0  0
 18  6  1  0  0  0
 12 18  1  0  0  0
 13 12  1  0  0  0
 16 12  1  0  0  0
 17 12  1  0  0  0
 16 17  1  0  0  0
 15 16  1  0  0  0
 10 15  1  0  0  0
 15 14  1  0  0  0
 14 13  1  0  0  0
 13  7  1  0  0  0
 10 19  1  0  0  0
 22 10  1  0  0  0
 21 22  2  0  0  0
 21 23  1  0  0  0
 20 21  1  0  0  0
 20  9  2  0  0  0
 20 11  1  0  0  0
 11 19  1  0  0  0
 19  8  2  0  0  0
 14  5  1  0  0  0
 14 24  1  0  0  0
 15 25  1  0  0  0
 16 26  1  0  0  0
 17 27  1  0  0  0
 17 28  1  0  0  0
 18 29  1  0  0  0
 18 30  1  0  0  0
 22 31  1  0  0  0
 23 32  1  0  0  0
 23 33  1  0  0  0
 23 34  1  0  0  0
M  END
$$$$
