### 
### Created by X-TOOL on Mon Oct 24 22:28:29 2005
### 

@<TRIPOS>MOLECULE
1e2k_ligand
   34    36     1     0     0
SMALL
GAST_HUCK


@<TRIPOS>ATOM
      1 H61        50.7941   36.2667    1.9178 H         1 SUB1        0.209
      2 H71        51.4815   35.0026   -1.5897 H         1 SUB1        0.210
      3 H111       43.5107   32.6572   -0.0397 H         1 SUB1        0.226
      4 H131       49.4186   35.2915   -0.7848 H         1 SUB1        0.060
      5 H141       47.7199   34.4278   -1.8172 H         1 SUB1        0.032
      6 O16        50.3650   35.7730    1.2290 O.3       1 SUB1       -0.394
      7 O18        50.7440   34.6090   -2.0410 O.3       1 SUB1       -0.391
      8 O9         45.4850   31.6870   -1.2610 O.2       1 SUB1       -0.384
      9 O7         43.1910   34.5170    1.4590 O.2       1 SUB1       -0.408
     10 N8         46.6500   33.2970   -0.0480 N.am      1 SUB1       -0.198
     11 N5         44.3790   33.1100    0.1630 N.am      1 SUB1       -0.186
     12 C1         50.1450   33.6030    0.1970 C.3       1 SUB1        0.026
     13 C10        49.7430   34.2920   -1.1100 C.3       1 SUB1        0.066
     14 C14        48.4730   33.6530   -1.6110 C.3       1 SUB1        0.004
     15 C17        47.9650   32.7100   -0.5190 C.3       1 SUB1        0.078
     16 C13        49.0050   32.6710    0.6400 C.3       1 SUB1       -0.000
     17 C15        50.3270   32.1180    0.1530 C.3       1 SUB1       -0.036
     18 C12        50.8100   34.3980    1.2750 C.3       1 SUB1        0.052
     19 C11        45.5520   32.6120   -0.4750 C.2       1 SUB1        0.325
     20 C6         44.3590   34.1810    1.0470 C.2       1 SUB1        0.193
     21 C4         45.5420   34.8400    1.4210 C.2       1 SUB1        0.022
     22 C2         46.6870   34.3520    0.8440 C.2       1 SUB1        0.050
     23 C3         45.6000   35.9960    2.3980 C.3       1 SUB1       -0.044
     24 H142       48.6768   33.0856   -2.5311 H         1 SUB1        0.032
     25 H151       47.8124   31.6960   -0.9172 H         1 SUB1        0.064
     26 H161       48.6058   32.5526    1.6581 H         1 SUB1        0.034
     27 H171       51.0100   31.6303    0.8641 H         1 SUB1        0.028
     28 H172       50.3790   31.6028   -0.8175 H         1 SUB1        0.028
     29 H181       50.5554   33.9664    2.2542 H         1 SUB1        0.056
     30 H182       51.9001   34.3640    1.1315 H         1 SUB1        0.056
     31 H221       47.6450   34.8054    1.0941 H         1 SUB1        0.101
     32 H231       46.6429   36.3262    2.5138 H         1 SUB1        0.030
     33 H232       45.2076   35.6720    3.3732 H         1 SUB1        0.030
     34 H233       44.9918   36.8294    2.0165 H         1 SUB1        0.030
@<TRIPOS>BOND
     1    6    1 1  
     2    7    2 1  
     3   11    3 1  
     4   13    4 1  
     5   18    6 1  
     6   12   18 1  
     7   13   12 1  
     8   16   12 1  
     9   17   12 1  
    10   16   17 1  
    11   15   16 1  
    12   10   15 1  
    13   15   14 1  
    14   14   13 1  
    15   13    7 1  
    16   10   19 am 
    17   22   10 am 
    18   21   22 2  
    19   21   23 1  
    20   20   21 1  
    21   20    9 2  
    22   20   11 am 
    23   11   19 am 
    24   19    8 2  
    25   14    5 1  
    26   14   24 1  
    27   15   25 1  
    28   16   26 1  
    29   17   27 1  
    30   17   28 1  
    31   18   29 1  
    32   18   30 1  
    33   22   31 1  
    34   23   32 1  
    35   23   33 1  
    36   23   34 1  
@<TRIPOS>SUBSTRUCTURE
     1 SUB1        1 GROUP

