### 
### Created by X-TOOL on Tue Oct 25 01:32:36 2005
### 

@<TRIPOS>MOLECULE
1kc7_ligand
   12    11     1     0     0
SMALL
GAST_HUCK


@<TRIPOS>ATOM
      1 H71        14.8622    7.6902    6.2743 H         1 SUB1        0.054
      2 H72        14.9446    8.1371    4.5365 H         1 SUB1        0.054
      3 C1         12.2140    8.4000    4.2270 C.2       1 SUB1        0.135
      4 O1         12.8380    8.8970    3.2100 O.co2     1 SUB1       -0.522
      5 O2'        10.9970    8.4700    4.3360 O.co2     1 SUB1       -0.522
      6 C2         13.0990    7.7160    5.2690 C.2       1 SUB1        0.159
      7 C3         14.4390    7.5000    5.2770 C.3       1 SUB1        0.068
      8 O2         12.4330    7.2480    6.3020 O.2       1 SUB1       -0.380
      9 P          14.5980    5.6080    4.7980 P.3       1 SUB1        0.078
     10 O1P        15.9860    5.4370    4.1140 O.co2     1 SUB1       -0.541
     11 O2P        13.4770    5.3690    3.9050 O.co2     1 SUB1       -0.541
     12 O3P        14.5940    4.8220    6.0460 O.co2     1 SUB1       -0.541
@<TRIPOS>BOND
     1    7    1 1  
     2    7    2 1  
     3    6    3 1  
     4    3    5 2  
     5    3    4 2  
     6    6    8 2  
     7    6    7 1  
     8    7    9 1  
     9    9   12 2  
    10    9   11 2  
    11    9   10 2  
@<TRIPOS>SUBSTRUCTURE
     1 SUB1        1 GROUP

