1kc7_ligand
  -I-interpret- 

 12 11  0  0  0  0  0  0  0  0999 V2000
   14.8622    7.6902    6.2743 H   0  0  0  0  0
   14.9446    8.1371    4.5365 H   0  0  0  0  0
   12.2140    8.4000    4.2270 C   0  0  0  0  0
   12.8380    8.8970    3.2100 O   0  5  0  0  0
   10.9970    8.4700    4.3360 O   0  0  0  0  0
   13.0990    7.7160    5.2690 C   0  0  0  0  0
   14.4390    7.5000    5.2770 C   0  0  0  0  0
   12.4330    7.2480    6.3020 O   0  0  0  0  0
   14.5980    5.6080    4.7980 P   0  0  0  0  0
   15.9860    5.4370    4.1140 O   0  5  0  0  0
   13.4770    5.3690    3.9050 O   0  0  0  0  0
   14.5940    4.8220    6.0460 O   0  5  0  0  0
  7  1  1  0  0  0
  7  2  1  0  0  0
  6  3  1  0  0  0
  3  5  2  0  0  0
  3  4  1  0  0  0
  6  8  2  0  0  0
  6  7  1  0  0  0
  7  9  1  0  0  0
  9 12  1  0  0  0
  9 11  2  0  0  0
  9 10  1  0  0  0
M  END
$$$$
