### 
### Created by X-TOOL on Mon Oct 24 21:52:48 2005
### 

@<TRIPOS>MOLECULE
1ocq_ligand
   44    45     1     0     0
SMALL
GAST_HUCK


@<TRIPOS>ATOM
      1 O4         61.9270   45.6490   35.7660 O.3       1 SUB1       -0.342
      2 C4         61.8470   44.2540   35.9900 C.3       1 SUB1        0.095
      3 C3         61.2830   43.6180   34.7100 C.3       1 SUB1        0.094
      4 O3         59.9770   44.0350   34.4270 O.3       1 SUB1       -0.388
      5 C2         61.2400   42.1160   34.8740 C.3       1 SUB1        0.024
      6 N          62.5770   41.5650   35.2360 N.3       1 SUB1       -0.313
      7 C1         63.1310   42.1720   36.4590 C.3       1 SUB1        0.003
      8 C5         63.2090   43.6850   36.2980 C.3       1 SUB1        0.023
      9 C6         63.9000   44.3040   37.5100 C.3       1 SUB1        0.051
     10 O6         63.1220   44.0620   38.6930 O.3       1 SUB1       -0.395
     11 C2         61.8730   47.8910   36.4770 C.3       1 SUB1        0.134
     12 C3         61.2330   48.8380   37.5040 C.3       1 SUB1        0.114
     13 C4         59.7600   48.5880   37.6170 C.3       1 SUB1        0.112
     14 C5         59.4940   47.1080   37.9400 C.3       1 SUB1        0.113
     15 C6         58.0500   46.7240   38.0380 C.3       1 SUB1        0.073
     16 C1         61.4380   46.4560   36.8300 C.3       1 SUB1        0.188
     17 O2         63.2630   48.0150   36.4470 O.3       1 SUB1       -0.384
     18 O3         61.4440   50.2040   37.0870 O.3       1 SUB1       -0.386
     19 O4         59.1810   49.3900   38.6550 O.3       1 SUB1       -0.387
     20 O5         60.0490   46.3250   36.8800 O.3       1 SUB1       -0.340
     21 O6         57.4030   46.9390   36.7690 O.3       1 SUB1       -0.392
     22 H21        61.1833   44.0454   36.8420 H         1 SUB1        0.063
     23 H31        61.9403   43.8694   33.8646 H         1 SUB1        0.063
     24 H41        59.9646   44.9781   34.3129 H         1 SUB1        0.210
     25 H51        60.5309   41.8579   35.6743 H         1 SUB1        0.045
     26 H52        60.9207   41.6560   33.9272 H         1 SUB1        0.045
     27 H61        62.4862   40.5017   35.4015 H         1 SUB1        0.122
     28 H71        62.4809   41.9402   37.3155 H         1 SUB1        0.043
     29 H72        64.1436   41.7827   36.6405 H         1 SUB1        0.043
     30 H81        63.8543   43.9032   35.4343 H         1 SUB1        0.036
     31 H91        64.8941   43.8519   37.6414 H         1 SUB1        0.056
     32 H92        63.9979   45.3902   37.3667 H         1 SUB1        0.056
     33 H101       63.5583   44.4500   39.4424 H         1 SUB1        0.209
     34 H111       61.5022   48.1445   35.4729 H         1 SUB1        0.067
     35 H121       61.7078   48.6900   38.4851 H         1 SUB1        0.065
     36 H131       59.2758   48.8512   36.6650 H         1 SUB1        0.065
     37 H141       59.9971   46.8558   38.8851 H         1 SUB1        0.065
     38 H151       57.9653   45.6600   38.3038 H         1 SUB1        0.058
     39 H152       57.5517   47.3417   38.7996 H         1 SUB1        0.058
     40 H161       61.8814   46.1394   37.7855 H         1 SUB1        0.094
     41 H171       63.6194   47.4154   35.8022 H         1 SUB1        0.210
     42 H181       61.0660   50.7922   37.7302 H         1 SUB1        0.210
     43 H191       59.3376   50.3083   38.4687 H         1 SUB1        0.210
     44 H211       57.8263   46.4076   36.1050 H         1 SUB1        0.209
@<TRIPOS>BOND
     1    1    2 1  
     2    2    3 1  
     3    2    8 1  
     4    3    4 1  
     5    3    5 1  
     6    5    6 1  
     7    7    6 1  
     8    8    7 1  
     9    8    9 1  
    10    9   10 1  
    11   16   11 1  
    12   11   12 1  
    13   11   17 1  
    14   12   13 1  
    15   12   18 1  
    16   14   13 1  
    17   13   19 1  
    18   14   15 1  
    19   20   14 1  
    20   15   21 1  
    21   16   20 1  
    22   16    1 1  
    23    2   22 1  
    24    3   23 1  
    25    4   24 1  
    26    5   25 1  
    27    5   26 1  
    28    6   27 1  
    29    7   28 1  
    30    7   29 1  
    31    8   30 1  
    32    9   31 1  
    33    9   32 1  
    34   10   33 1  
    35   11   34 1  
    36   12   35 1  
    37   13   36 1  
    38   14   37 1  
    39   15   38 1  
    40   15   39 1  
    41   16   40 1  
    42   17   41 1  
    43   18   42 1  
    44   19   43 1  
    45   21   44 1  
@<TRIPOS>SUBSTRUCTURE
     1 SUB1        1 GROUP

