1ocq_ligand
  -I-interpret- 

 44 45  0  0  0  0  0  0  0  0999 V2000
   61.9270   45.6490   35.7660 O   0  0  0  0  0
   61.8470   44.2540   35.9900 C   0  0  0  0  0
   61.2830   43.6180   34.7100 C   0  0  0  0  0
   59.9770   44.0350   34.4270 O   0  0  0  0  0
   61.2400   42.1160   34.8740 C   0  0  0  0  0
   62.5770   41.5650   35.2360 N   0  0  0  0  0
   63.1310   42.1720   36.4590 C   0  0  0  0  0
   63.2090   43.6850   36.2980 C   0  0  0  0  0
   63.9000   44.3040   37.5100 C   0  0  0  0  0
   63.1220   44.0620   38.6930 O   0  0  0  0  0
   61.8730   47.8910   36.4770 C   0  0  0  0  0
   61.2330   48.8380   37.5040 C   0  0  0  0  0
   59.7600   48.5880   37.6170 C   0  0  0  0  0
   59.4940   47.1080   37.9400 C   0  0  0  0  0
   58.0500   46.7240   38.0380 C   0  0  0  0  0
   61.4380   46.4560   36.8300 C   0  0  0  0  0
   63.2630   48.0150   36.4470 O   0  0  0  0  0
   61.4440   50.2040   37.0870 O   0  0  0  0  0
   59.1810   49.3900   38.6550 O   0  0  0  0  0
   60.0490   46.3250   36.8800 O   0  0  0  0  0
   57.4030   46.9390   36.7690 O   0  0  0  0  0
   61.1833   44.0454   36.8420 H   0  0  0  0  0
   61.9403   43.8694   33.8646 H   0  0  0  0  0
   59.9646   44.9781   34.3129 H   0  0  0  0  0
   60.5309   41.8579   35.6743 H   0  0  0  0  0
   60.9207   41.6560   33.9272 H   0  0  0  0  0
   62.4862   40.5017   35.4015 H   0  0  0  0  0
   62.4809   41.9402   37.3155 H   0  0  0  0  0
   64.1436   41.7827   36.6405 H   0  0  0  0  0
   63.8543   43.9032   35.4343 H   0  0  0  0  0
   64.8941   43.8519   37.6414 H   0  0  0  0  0
   63.9979   45.3902   37.3667 H   0  0  0  0  0
   63.5583   44.4500   39.4424 H   0  0  0  0  0
   61.5022   48.1445   35.4729 H   0  0  0  0  0
   61.7078   48.6900   38.4851 H   0  0  0  0  0
   59.2758   48.8512   36.6650 H   0  0  0  0  0
   59.9971   46.8558   38.8851 H   0  0  0  0  0
   57.9653   45.6600   38.3038 H   0  0  0  0  0
   57.5517   47.3417   38.7996 H   0  0  0  0  0
   61.8814   46.1394   37.7855 H   0  0  0  0  0
   63.6194   47.4154   35.8022 H   0  0  0  0  0
   61.0660   50.7922   37.7302 H   0  0  0  0  0
   59.3376   50.3083   38.4687 H   0  0  0  0  0
   57.8263   46.4076   36.1050 H   0  0  0  0  0
  1  2  1  0  0  0
  2  3  1  0  0  0
  2  8  1  0  0  0
  3  4  1  0  0  0
  3  5  1  0  0  0
  5  6  1  0  0  0
  7  6  1  0  0  0
  8  7  1  0  0  0
  8  9  1  0  0  0
  9 10  1  0  0  0
 16 11  1  0  0  0
 11 12  1  0  0  0
 11 17  1  0  0  0
 12 13  1  0  0  0
 12 18  1  0  0  0
 14 13  1  0  0  0
 13 19  1  0  0  0
 14 15  1  0  0  0
 20 14  1  0  0  0
 15 21  1  0  0  0
 16 20  1  0  0  0
 16  1  1  0  0  0
  2 22  1  0  0  0
  3 23  1  0  0  0
  4 24  1  0  0  0
  5 25  1  0  0  0
  5 26  1  0  0  0
  6 27  1  0  0  0
  7 28  1  0  0  0
  7 29  1  0  0  0
  8 30  1  0  0  0
  9 31  1  0  0  0
  9 32  1  0  0  0
 10 33  1  0  0  0
 11 34  1  0  0  0
 12 35  1  0  0  0
 13 36  1  0  0  0
 14 37  1  0  0  0
 15 38  1  0  0  0
 15 39  1  0  0  0
 16 40  1  0  0  0
 17 41  1  0  0  0
 18 42  1  0  0  0
 19 43  1  0  0  0
 21 44  1  0  0  0
M  END
$$$$
