### 
### Created by X-TOOL on Tue Oct 25 01:16:12 2005
### 

@<TRIPOS>MOLECULE
1bnu_ligand
   34    36     1     0     0
SMALL
GAST_HUCK


@<TRIPOS>ATOM
      1 H41        -2.0277    2.3024   13.4170 H         1 SUB1        0.212
      2 H51        -4.1408    4.7948   12.0172 H         1 SUB1        0.052
      3 C3         -5.3870    2.1330   15.8720 C.2       1 SUB1        0.159
      4 O5         -2.3100    3.0260   12.8700 O.3       1 SUB1       -0.382
      5 C9         -3.3960    5.1670   12.7360 C.3       1 SUB1        0.064
      6 C10        -2.9520    4.0030   13.6750 C.3       1 SUB1        0.096
      7 C11        -3.0250    6.6200   14.5750 C.3       1 SUB1        0.075
      8 C12        -2.4260    7.8850   14.2360 C.2       1 SUB1        0.031
      9 C13        -2.4300    8.5120   13.0050 C.2       1 SUB1       -0.080
     10 C14        -1.7940    9.7230   13.0680 C.2       1 SUB1       -0.093
     11 C15        -1.2980   10.0360   14.3240 C.2       1 SUB1       -0.020
     12 O1A        -5.4610    0.9870   18.1890 O.2       1 SUB1       -0.150
     13 O2A        -7.3040    0.8500   16.8940 O.2       1 SUB1       -0.150
     14 N21        -5.3540   -0.3940   16.2360 N.am      1 SUB1       -0.261
     15 S1         -5.8810    0.8350   16.8560 S.o2      1 SUB1        0.074
     16 C4         -4.2640    2.2050   15.1130 C.2       1 SUB1       -0.042
     17 C5         -4.1360    3.3590   14.4010 C.2       1 SUB1       -0.004
     18 C6         -5.2000    4.1940   14.6360 C.2       1 SUB1        0.159
     19 S2         -6.3430    3.5400   15.7230 S.3       1 SUB1       -0.001
     20 S7         -5.3150    5.8180   14.0610 S.o2      1 SUB1        0.075
     21 O3B        -6.2970    5.8260   13.0500 O.2       1 SUB1       -0.152
     22 O4B        -5.8480    6.6350   15.1020 O.2       1 SUB1       -0.152
     23 N8         -3.9840    6.2390   13.5360 N.am      1 SUB1       -0.219
     24 S16        -1.6320    8.7810   15.4670 S.3       1 SUB1       -0.043
     25 H52        -2.5217    5.5529   12.1914 H         1 SUB1        0.052
     26 H61        -2.2455    4.3919   14.4231 H         1 SUB1        0.072
     27 H71        -2.2413    5.8518   14.6499 H         1 SUB1        0.067
     28 H72        -3.5457    6.7080   15.5399 H         1 SUB1        0.067
     29 H91        -2.8795    8.0979   12.1037 H         1 SUB1        0.028
     30 H101       -1.6873   10.3819   12.2075 H         1 SUB1        0.037
     31 H111       -0.7654   10.9557   14.5613 H         1 SUB1        0.060
     32 H141       -5.5326   -1.2899   16.6620 H         1 SUB1        0.163
     33 H161       -3.5256    1.4054   15.0763 H         1 SUB1        0.041
     34 H142       -4.8193   -0.3390   15.3928 H         1 SUB1        0.163
@<TRIPOS>BOND
     1    3   19 1  
     2    3   16 2  
     3    3   15 1  
     4   15   12 2  
     5   15   13 2  
     6   15   14 1  
     7   16   17 1  
     8   17   18 2  
     9   17    6 1  
    10    6    5 1  
    11    6    4 1  
    12    5   23 1  
    13   23    7 1  
    14   23   20 1  
    15   20   22 2  
    16   20   21 2  
    17   20   18 1  
    18   18   19 1  
    19    7    8 1  
    20    8   24 1  
    21    8    9 2  
    22    9   10 1  
    23   10   11 2  
    24   11   24 1  
    25    4    1 1  
    26    5    2 1  
    27    5   25 1  
    28    6   26 1  
    29    7   27 1  
    30    7   28 1  
    31    9   29 1  
    32   10   30 1  
    33   11   31 1  
    34   14   32 1  
    35   16   33 1  
    36   14   34 1  
@<TRIPOS>SUBSTRUCTURE
     1 SUB1        1 GROUP

