1bxo_ligand
  -I-interpret- 

 90 91  0  0  0  0  0  0  0  0999 V2000
   18.0510    5.3170   18.4320 N   0  0  0  0  0
   16.0920    4.0570   17.7300 C   0  0  0  0  0
   19.3060    5.5990   19.1250 C   0  0  0  0  0
   14.8410    3.8900   18.5460 C   0  0  0  0  0
   20.5230    5.4920   18.2140 C   0  0  0  0  0
   14.6890    4.9220   19.5530 C   0  0  0  0  0
   20.6780    4.1160   17.6370 C   0  0  0  0  0
   13.6180    3.7750   17.5780 C   0  0  0  0  0
   20.5270    6.5810   17.1570 C   0  0  0  0  0
   17.3280    4.2240   18.5800 C   0  0  0  0  0
   19.1970    6.9640   19.8490 C   0  0  0  0  0
   17.7060    3.2880   19.3500 O   0  0  0  0  0
   18.3670    7.8170   19.5170 O   0  0  0  0  0
   20.1090    7.1410   20.8050 N   0  0  0  0  0
   20.1150    8.3280   21.6850 C   0  0  0  0  0
   19.3710    8.0260   22.9740 C   0  0  0  0  0
   19.1900    9.1290   23.9840 C   0  0  0  0  0
   19.0640    8.8360   25.2000 O   0  0  0  0  0
   19.0770   10.3600   23.5810 N   0  0  0  0  0
   18.6640   11.4770   24.4420 C   0  0  0  0  0
   21.5550    8.7340   21.9250 C   0  0  0  0  0
   22.1800    8.3600   22.9420 O   0  0  0  0  0
   22.1390    9.4880   20.9720 N   0  0  0  0  0
   23.5530    9.8470   20.9350 C   0  0  0  0  0
   24.2340    9.3230   19.6550 C   0  0  0  0  0
   23.9710    7.8600   19.2910 C   0  0  0  0  0
   24.5990    7.4880   17.9690 C   0  0  0  0  0
   24.4280    6.9130   20.4160 C   0  0  0  0  0
   23.7220   11.6490   21.1010 P   0  0  0  0  0
   22.7540   12.2890   20.1340 O   0  5  0  0  0
   25.1710   12.0470   20.9650 O   0  0  0  0  0
   23.3540   11.9260   22.6220 O   0  0  0  0  0
   23.9660   12.9730   23.4040 C   0  0  0  0  0
   22.9070   14.0680   23.7130 C   0  0  0  0  0
   25.5130   12.9980   26.7790 C   0  0  0  0  0
   21.8170   13.6320   24.6150 C   0  0  0  0  0
   21.7200   14.0880   25.9480 C   0  0  0  0  0
   20.8070   12.7680   24.1780 C   0  0  0  0  0
   20.6880   13.6680   26.7730 C   0  0  0  0  0
   19.7380   12.7580   26.3260 C   0  0  0  0  0
   19.7820   12.3320   24.9830 C   0  0  0  0  0
   24.5240   12.3800   24.6900 C   0  0  0  0  0
   24.9760   13.3280   25.4650 O   0  0  0  0  0
   24.5270   11.2170   24.9550 O   0  0  0  0  0
   17.7600    5.9120   17.8830 H   0  0  0  0  0
   19.4090    4.9150   19.8190 H   0  0  0  0  0
   20.7160    6.5420   20.9130 H   0  0  0  0  0
   19.6570    9.0610   21.2240 H   0  0  0  0  0
   19.2560   10.5310   22.7580 H   0  0  0  0  0
   21.6400    9.7790   20.3360 H   0  0  0  0  0
   23.9930    9.4290   21.7040 H   0  0  0  0  0
   23.0020    7.7530   19.1940 H   0  0  0  0  0
   25.8020   13.8010   27.2180 H   0  0  0  0  0
   26.2580   12.4010   26.6800 H   0  0  0  0  0
   24.8310   12.5740   27.3060 H   0  0  0  0  0
   22.3580   14.6780   26.2780 H   0  0  0  0  0
   20.8310   12.4730   23.2960 H   0  0  0  0  0
   20.6300   14.0010   27.6390 H   0  0  0  0  0
   19.0850   12.4340   26.9030 H   0  0  0  0  0
   16.2192    3.1671   17.0961 H   0  0  0  0  0
   15.9802    4.9474   17.0939 H   0  0  0  0  0
   14.9227    2.9348   19.0853 H   0  0  0  0  0
   21.4067    5.6657   18.8456 H   0  0  0  0  0
   13.7605    4.7499   20.1171 H   0  0  0  0  0
   14.6443    5.9068   19.0650 H   0  0  0  0  0
   15.5468    4.8922   20.2409 H   0  0  0  0  0
   21.5664    4.0881   16.9890 H   0  0  0  0  0
   19.7852    3.8634   17.0462 H   0  0  0  0  0
   20.7962    3.3875   18.4527 H   0  0  0  0  0
   13.8041    2.9758   16.8454 H   0  0  0  0  0
   13.4766    4.7300   17.0508 H   0  0  0  0  0
   12.7131    3.5382   18.1569 H   0  0  0  0  0
   20.4104    7.5620   17.6408 H   0  0  0  0  0
   19.6944    6.4160   16.4574 H   0  0  0  0  0
   21.4791    6.5544   16.6067 H   0  0  0  0  0
   19.9141    7.2127   23.4776 H   0  0  0  0  0
   18.3663    7.6771   22.6931 H   0  0  0  0  0
   18.1136   11.0589   25.2977 H   0  0  0  0  0
   17.9950   12.1254   23.8572 H   0  0  0  0  0
   25.3199    9.4461   19.7799 H   0  0  0  0  0
   23.8888    9.9435   18.8149 H   0  0  0  0  0
   24.3865    6.4319   17.7464 H   0  0  0  0  0
   25.6871    7.6392   18.0245 H   0  0  0  0  0
   24.1808    8.1218   17.1731 H   0  0  0  0  0
   23.9531    7.2117   21.3622 H   0  0  0  0  0
   25.5215    6.9691   20.5209 H   0  0  0  0  0
   24.1358    5.8818   20.1686 H   0  0  0  0  0
   24.7895   13.4225   22.8297 H   0  0  0  0  0
   23.4209   14.9200   24.1821 H   0  0  0  0  0
   22.4577   14.3893   22.7617 H   0  0  0  0  0
  1 45  1  0  0  0
  1 10  1  0  0  0
  1  3  1  0  0  0
  3 46  1  0  0  0
  3 11  1  0  0  0
  3  5  1  0  0  0
  5  9  1  0  0  0
  5  7  1  0  0  0
 11 14  1  0  0  0
 11 13  2  0  0  0
 14 47  1  0  0  0
 14 15  1  0  0  0
 15 48  1  0  0  0
 15 21  1  0  0  0
 15 16  1  0  0  0
 16 17  1  0  0  0
 17 19  1  0  0  0
 17 18  2  0  0  0
 19 49  1  0  0  0
 19 20  1  0  0  0
 20 41  1  0  0  0
 41 40  4  0  0  0
 41 38  4  0  0  0
 38 57  1  0  0  0
 38 36  4  0  0  0
 36 37  4  0  0  0
 36 34  1  0  0  0
 34 33  1  0  0  0
 33 42  1  0  0  0
 33 32  1  0  0  0
 32 29  1  0  0  0
 29 31  2  0  0  0
 29 30  1  0  0  0
 29 24  1  0  0  0
 24 51  1  0  0  0
 24 25  1  0  0  0
 24 23  1  0  0  0
 23 50  1  0  0  0
 23 21  1  0  0  0
 21 22  2  0  0  0
 25 26  1  0  0  0
 26 52  1  0  0  0
 26 28  1  0  0  0
 26 27  1  0  0  0
 42 44  2  0  0  0
 42 43  1  0  0  0
 43 35  1  0  0  0
 35 53  1  0  0  0
 35 54  1  0  0  0
 35 55  1  0  0  0
 37 56  1  0  0  0
 37 39  4  0  0  0
 39 58  1  0  0  0
 39 40  4  0  0  0
 40 59  1  0  0  0
 10  2  1  0  0  0
 10 12  2  0  0  0
  2  4  1  0  0  0
  4  6  1  0  0  0
  4  8  1  0  0  0
  2 60  1  0  0  0
  2 61  1  0  0  0
  4 62  1  0  0  0
  5 63  1  0  0  0
  6 64  1  0  0  0
  6 65  1  0  0  0
  6 66  1  0  0  0
  7 67  1  0  0  0
  7 68  1  0  0  0
  7 69  1  0  0  0
  8 70  1  0  0  0
  8 71  1  0  0  0
  8 72  1  0  0  0
  9 73  1  0  0  0
  9 74  1  0  0  0
  9 75  1  0  0  0
 16 76  1  0  0  0
 16 77  1  0  0  0
 20 78  1  0  0  0
 20 79  1  0  0  0
 25 80  1  0  0  0
 25 81  1  0  0  0
 27 82  1  0  0  0
 27 83  1  0  0  0
 27 84  1  0  0  0
 28 85  1  0  0  0
 28 86  1  0  0  0
 28 87  1  0  0  0
 33 88  1  0  0  0
 34 89  1  0  0  0
 34 90  1  0  0  0
M  END
$$$$
