### 
### Created by X-TOOL on Mon Oct 24 21:52:33 2005
### 

@<TRIPOS>MOLECULE
1bxo_ligand
   90    91     1     0     0
SMALL
GAST_HUCK


@<TRIPOS>ATOM
      1 NV2        18.0510    5.3170   18.4320 N.am      1 SUB1       -0.265
      2 CV1        16.0920    4.0570   17.7300 C.3       1 SUB1        0.040
      3 CV6        19.3060    5.5990   19.1250 C.3       1 SUB1        0.133
      4 CV2        14.8410    3.8900   18.5460 C.3       1 SUB1       -0.030
      5 CV7        20.5230    5.4920   18.2140 C.3       1 SUB1       -0.006
      6 CV3        14.6890    4.9220   19.5530 C.3       1 SUB1       -0.061
      7 CV8        20.6780    4.1160   17.6370 C.3       1 SUB1       -0.058
      8 CV4        13.6180    3.7750   17.5780 C.3       1 SUB1       -0.061
      9 CV9        20.5270    6.5810   17.1570 C.3       1 SUB1       -0.058
     10 CV5        17.3280    4.2240   18.5800 C.2       1 SUB1        0.178
     11 CR         19.1970    6.9640   19.8490 C.2       1 SUB1        0.204
     12 OV1        17.7060    3.2880   19.3500 O.2       1 SUB1       -0.397
     13 OV2        18.3670    7.8170   19.5170 O.2       1 SUB1       -0.394
     14 N1         20.1090    7.1410   20.8050 N.am      1 SUB1       -0.262
     15 C1         20.1150    8.3280   21.6850 C.3       1 SUB1        0.147
     16 C2         19.3710    8.0260   22.9740 C.3       1 SUB1        0.078
     17 C4         19.1900    9.1290   23.9840 C.2       1 SUB1        0.182
     18 O2         19.0640    8.8360   25.2000 O.2       1 SUB1       -0.397
     19 N2         19.0770   10.3600   23.5810 N.am      1 SUB1       -0.275
     20 CB         18.6640   11.4770   24.4420 C.3       1 SUB1        0.063
     21 C3         21.5550    8.7340   21.9250 C.2       1 SUB1        0.205
     22 O1         22.1800    8.3600   22.9420 O.2       1 SUB1       -0.394
     23 NL         22.1390    9.4880   20.9720 N.am      1 SUB1       -0.276
     24 CAL        23.5530    9.8470   20.9350 C.3       1 SUB1        0.097
     25 CBL        24.2340    9.3230   19.6550 C.3       1 SUB1       -0.022
     26 CGL        23.9710    7.8600   19.2910 C.3       1 SUB1       -0.044
     27 CL1        24.5990    7.4880   17.9690 C.3       1 SUB1       -0.063
     28 CL2        24.4280    6.9130   20.4160 C.3       1 SUB1       -0.063
     29 P          23.7220   11.6490   21.1010 P.3       1 SUB1        0.153
     30 O3         22.7540   12.2890   20.1340 O.co2     1 SUB1       -0.543
     31 O4         25.1710   12.0470   20.9650 O.co2     1 SUB1       -0.543
     32 O5         23.3540   11.9260   22.6220 O.3       1 SUB1       -0.302
     33 C5         23.9660   12.9730   23.4040 C.3       1 SUB1        0.184
     34 C6         22.9070   14.0680   23.7130 C.3       1 SUB1        0.029
     35 C7         25.5130   12.9980   26.7790 C.3       1 SUB1        0.066
     36 CE2        21.8170   13.6320   24.6150 C.ar      1 SUB1       -0.045
     37 CZ         21.7200   14.0880   25.9480 C.ar      1 SUB1       -0.067
     38 CD2        20.8070   12.7680   24.1780 C.ar      1 SUB1       -0.057
     39 CE1        20.6880   13.6680   26.7730 C.ar      1 SUB1       -0.075
     40 CD1        19.7380   12.7580   26.3260 C.ar      1 SUB1       -0.065
     41 CG         19.7820   12.3320   24.9830 C.ar      1 SUB1       -0.028
     42 CT         24.5240   12.3800   24.6900 C.2       1 SUB1        0.269
     43 OT1        24.9760   13.3280   25.4650 O.3       1 SUB1       -0.278
     44 OT2        24.5270   11.2170   24.9550 O.2       1 SUB1       -0.367
     45 H11        17.7600    5.9120   17.8830 H         1 SUB1        0.188
     46 H31        19.4090    4.9150   19.8190 H         1 SUB1        0.080
     47 H141       20.7160    6.5420   20.9130 H         1 SUB1        0.189
     48 H151       19.6570    9.0610   21.2240 H         1 SUB1        0.083
     49 H191       19.2560   10.5310   22.7580 H         1 SUB1        0.188
     50 H231       21.6400    9.7790   20.3360 H         1 SUB1        0.186
     51 H241       23.9930    9.4290   21.7040 H         1 SUB1        0.062
     52 H261       23.0020    7.7530   19.1940 H         1 SUB1        0.030
     53 H351       25.8020   13.8010   27.2180 H         1 SUB1        0.058
     54 H352       26.2580   12.4010   26.6800 H         1 SUB1        0.058
     55 H353       24.8310   12.5740   27.3060 H         1 SUB1        0.058
     56 H371       22.3580   14.6780   26.2780 H         1 SUB1        0.050
     57 H381       20.8310   12.4730   23.2960 H         1 SUB1        0.049
     58 H391       20.6300   14.0010   27.6390 H         1 SUB1        0.058
     59 H401       19.0850   12.4340   26.9030 H         1 SUB1        0.050
     60 H21        16.2192    3.1671   17.0961 H         1 SUB1        0.051
     61 H22        15.9802    4.9474   17.0939 H         1 SUB1        0.051
     62 H41        14.9227    2.9348   19.0853 H         1 SUB1        0.032
     63 H51        21.4067    5.6657   18.8456 H         1 SUB1        0.034
     64 H61        13.7605    4.7499   20.1171 H         1 SUB1        0.023
     65 H62        14.6443    5.9068   19.0650 H         1 SUB1        0.023
     66 H63        15.5468    4.8922   20.2409 H         1 SUB1        0.023
     67 H71        21.5664    4.0881   16.9890 H         1 SUB1        0.023
     68 H72        19.7852    3.8634   17.0462 H         1 SUB1        0.023
     69 H73        20.7962    3.3875   18.4527 H         1 SUB1        0.023
     70 H81        13.8041    2.9758   16.8454 H         1 SUB1        0.023
     71 H82        13.4766    4.7300   17.0508 H         1 SUB1        0.023
     72 H83        12.7131    3.5382   18.1569 H         1 SUB1        0.023
     73 H91        20.4104    7.5620   17.6408 H         1 SUB1        0.023
     74 H92        19.6944    6.4160   16.4574 H         1 SUB1        0.023
     75 H93        21.4791    6.5544   16.6067 H         1 SUB1        0.023
     76 H161       19.9141    7.2127   23.4776 H         1 SUB1        0.055
     77 H162       18.3663    7.6771   22.6931 H         1 SUB1        0.055
     78 H201       18.1136   11.0589   25.2977 H         1 SUB1        0.068
     79 H202       17.9950   12.1254   23.8572 H         1 SUB1        0.068
     80 H251       25.3199    9.4461   19.7799 H         1 SUB1        0.029
     81 H252       23.8888    9.9435   18.8149 H         1 SUB1        0.029
     82 H271       24.3865    6.4319   17.7464 H         1 SUB1        0.023
     83 H272       25.6871    7.6392   18.0245 H         1 SUB1        0.023
     84 H273       24.1808    8.1218   17.1731 H         1 SUB1        0.023
     85 H281       23.9531    7.2117   21.3622 H         1 SUB1        0.023
     86 H282       25.5215    6.9691   20.5209 H         1 SUB1        0.023
     87 H283       24.1358    5.8818   20.1686 H         1 SUB1        0.023
     88 H331       24.7895   13.4225   22.8297 H         1 SUB1        0.093
     89 H341       23.4209   14.9200   24.1821 H         1 SUB1        0.048
     90 H342       22.4577   14.3893   22.7617 H         1 SUB1        0.048
@<TRIPOS>BOND
     1    1   45 1  
     2    1   10 am 
     3    1    3 1  
     4    3   46 1  
     5    3   11 1  
     6    3    5 1  
     7    5    9 1  
     8    5    7 1  
     9   11   14 am 
    10   11   13 2  
    11   14   47 1  
    12   14   15 1  
    13   15   48 1  
    14   15   21 1  
    15   15   16 1  
    16   16   17 1  
    17   17   19 am 
    18   17   18 2  
    19   19   49 1  
    20   19   20 1  
    21   20   41 1  
    22   41   40 ar 
    23   41   38 ar 
    24   38   57 1  
    25   38   36 ar 
    26   36   37 ar 
    27   36   34 1  
    28   34   33 1  
    29   33   42 1  
    30   33   32 1  
    31   32   29 1  
    32   29   31 2  
    33   29   30 2  
    34   29   24 1  
    35   24   51 1  
    36   24   25 1  
    37   24   23 1  
    38   23   50 1  
    39   23   21 am 
    40   21   22 2  
    41   25   26 1  
    42   26   52 1  
    43   26   28 1  
    44   26   27 1  
    45   42   44 2  
    46   42   43 1  
    47   43   35 1  
    48   35   53 1  
    49   35   54 1  
    50   35   55 1  
    51   37   56 1  
    52   37   39 ar 
    53   39   58 1  
    54   39   40 ar 
    55   40   59 1  
    56   10    2 1  
    57   10   12 2  
    58    2    4 1  
    59    4    6 1  
    60    4    8 1  
    61    2   60 1  
    62    2   61 1  
    63    4   62 1  
    64    5   63 1  
    65    6   64 1  
    66    6   65 1  
    67    6   66 1  
    68    7   67 1  
    69    7   68 1  
    70    7   69 1  
    71    8   70 1  
    72    8   71 1  
    73    8   72 1  
    74    9   73 1  
    75    9   74 1  
    76    9   75 1  
    77   16   76 1  
    78   16   77 1  
    79   20   78 1  
    80   20   79 1  
    81   25   80 1  
    82   25   81 1  
    83   27   82 1  
    84   27   83 1  
    85   27   84 1  
    86   28   85 1  
    87   28   86 1  
    88   28   87 1  
    89   33   88 1  
    90   34   89 1  
    91   34   90 1  
@<TRIPOS>SUBSTRUCTURE
     1 SUB1        1 GROUP

