### 
### Created by X-TOOL on Tue Oct 25 01:11:00 2005
### 

@<TRIPOS>MOLECULE
1vfn_ligand
   14    15     1     0     0
SMALL
GAST_HUCK


@<TRIPOS>ATOM
      1 N1         74.5940   49.8230   49.6500 N.am      1 SUB1       -0.204
      2 C2         75.5050   48.7720   49.5940 C.2       1 SUB1        0.119
      3 N3         75.1940   47.4740   49.7740 N.2       1 SUB1       -0.301
      4 C4         73.8670   47.3080   49.9700 C.2       1 SUB1        0.072
      5 C5         72.8860   48.2940   50.0930 C.2       1 SUB1        0.159
      6 C6         73.2290   49.6670   49.9560 C.2       1 SUB1        0.247
      7 O6         72.4870   50.6560   50.0020 O.2       1 SUB1       -0.400
      8 N7         71.6350   47.7090   50.3590 N.pl3     1 SUB1       -0.254
      9 C8         71.8970   46.4310   50.3920 C.2       1 SUB1        0.100
     10 N9         73.2370   46.1020   50.1700 N.2       1 SUB1       -0.303
     11 H11        74.9300   50.7457   49.4612 H         1 SUB1        0.254
     12 H21        76.5461   49.0174   49.3895 H         1 SUB1        0.145
     13 H81        70.7280   48.1777   50.4953 H         1 SUB1        0.237
     14 H91        71.1312   45.6795   50.5780 H         1 SUB1        0.129
@<TRIPOS>BOND
     1    1    6 am 
     2    1    2 am 
     3    2    3 2  
     4    3    4 1  
     5    4   10 1  
     6    4    5 2  
     7    5    8 1  
     8    5    6 1  
     9    6    7 2  
    10    8    9 1  
    11    9   10 2  
    12    1   11 1  
    13    2   12 1  
    14    8   13 1  
    15    9   14 1  
@<TRIPOS>SUBSTRUCTURE
     1 SUB1        1 GROUP

