2cet_ligand
  -I-interpret- 

 42 44  0  0  0  0  0  0  0  0999 V2000
   -2.7750    8.0450    8.4800 O   0  0  0  0  0
   -3.2670    9.3630    8.2000 C   0  0  0  0  0
   -2.3130   10.4730    8.6290 C   0  0  0  0  0
   -1.1030   10.6420    7.6940 C   0  0  0  0  0
   -1.5160   10.8410    6.3370 O   0  0  0  0  0
   -0.2660   11.8380    8.1920 C   0  0  0  0  0
    0.8140   12.2110    7.3370 O   0  0  0  0  0
    0.3640   11.5580    9.5490 C   0  0  0  0  0
    0.7430   12.7850   10.1550 O   0  0  0  0  0
   -1.7290   10.2150    9.9710 N   0  0  0  0  0
   -2.2130    9.4230   10.9420 C   0  0  0  0  0
   -1.2870    9.4600   11.9730 C   0  0  0  0  0
   -0.2800   10.2540   11.5880 N   0  0  0  0  0
   -0.5520   10.7170   10.3680 C   0  0  0  0  0
   -1.3760    8.7660   13.3130 C   0  0  0  0  0
   -0.0900    7.9790   13.5770 C   0  0  0  0  0
    0.2210    6.8550   12.5880 C   0  0  0  0  0
    1.1890    7.0310   11.5850 C   0  0  0  0  0
    1.5000    6.0000   10.6790 C   0  0  0  0  0
   -0.4210    5.6130   12.6800 C   0  0  0  0  0
   -0.1050    4.5860   11.7730 C   0  0  0  0  0
    0.8590    4.7600   10.7710 C   0  0  0  0  0
   -2.6317    7.9521    9.4247 H   0  0  0  0  0
   -4.1931    9.4926    8.7601 H   0  0  0  0  0
   -3.3966    9.4417    7.1206 H   0  0  0  0  0
   -2.9379   11.3659    8.6132 H   0  0  0  0  0
   -0.5017    9.7330    7.7130 H   0  0  0  0  0
   -0.7411   10.9429    5.7795 H   0  0  0  0  0
   -0.9947   12.6479    8.2273 H   0  0  0  0  0
    1.2797   12.9585    7.7191 H   0  0  0  0  0
    1.2805   10.9769    9.4465 H   0  0  0  0  0
    1.3777   13.2356    9.5930 H   0  0  0  0  0
   -3.1478    8.8627   10.9231 H   0  0  0  0  0
   -2.2231    8.0801   13.3076 H   0  0  0  0  0
   -1.5088    9.5119   14.0966 H   0  0  0  0  0
   -0.2149    7.5050   14.5506 H   0  0  0  0  0
    0.7290    8.6937   13.4964 H   0  0  0  0  0
    1.7097    7.9854   11.5070 H   0  0  0  0  0
    2.2447    6.1686    9.9011 H   0  0  0  0  0
   -1.1670    5.4425   13.4563 H   0  0  0  0  0
   -0.6231    3.6302   11.8513 H   0  0  0  0  0
    1.1027    3.9513   10.0821 H   0  0  0  0  0
  1  2  1  0  0  0
  2  3  1  0  0  0
  3  4  1  0  0  0
  3 10  1  0  0  0
  4  5  1  0  0  0
  4  6  1  0  0  0
  6  7  1  0  0  0
  6  8  1  0  0  0
  8  9  1  0  0  0
  8 14  1  0  0  0
 10 11  1  0  0  0
 10 14  1  0  0  0
 11 12  2  0  0  0
 12 13  1  0  0  0
 12 15  1  0  0  0
 13 14  2  0  0  0
 15 16  1  0  0  0
 16 17  1  0  0  0
 17 18  4  0  0  0
 17 20  4  0  0  0
 18 19  4  0  0  0
 19 22  4  0  0  0
 20 21  4  0  0  0
 21 22  4  0  0  0
  1 23  1  0  0  0
  2 24  1  0  0  0
  2 25  1  0  0  0
  3 26  1  0  0  0
  4 27  1  0  0  0
  5 28  1  0  0  0
  6 29  1  0  0  0
  7 30  1  0  0  0
  8 31  1  0  0  0
  9 32  1  0  0  0
 11 33  1  0  0  0
 15 34  1  0  0  0
 15 35  1  0  0  0
 16 36  1  0  0  0
 16 37  1  0  0  0
 18 38  1  0  0  0
 19 39  1  0  0  0
 20 40  1  0  0  0
 21 41  1  0  0  0
 22 42  1  0  0  0
M  END
$$$$
