### 
### Created by X-TOOL on Sun Jun  3 11:19:38 2007
### 

@<TRIPOS>MOLECULE
2cet_ligand
   42    44     1     0     0
SMALL
GAST_HUCK


@<TRIPOS>ATOM
      1 O6         -2.7750    8.0450    8.4800 O.3       1 SUB1       -0.392
      2 C6         -3.2670    9.3630    8.2000 C.3       1 SUB1        0.077
      3 C5         -2.3130   10.4730    8.6290 C.3       1 SUB1        0.117
      4 C4         -1.1030   10.6420    7.6940 C.3       1 SUB1        0.118
      5 O4         -1.5160   10.8410    6.3370 O.3       1 SUB1       -0.386
      6 C3         -0.2660   11.8380    8.1920 C.3       1 SUB1        0.125
      7 O3          0.8140   12.2110    7.3370 O.3       1 SUB1       -0.384
      8 C2          0.3640   11.5580    9.5490 C.3       1 SUB1        0.158
      9 O2          0.7430   12.7850   10.1550 O.3       1 SUB1       -0.370
     10 N1         -1.7290   10.2150    9.9710 N.pl3     1 SUB1       -0.250
     11 C8         -2.2130    9.4230   10.9420 C.2       1 SUB1        0.024
     12 C7         -1.2870    9.4600   11.9730 C.2       1 SUB1       -0.018
     13 N2         -0.2800   10.2540   11.5880 N.2       1 SUB1       -0.331
     14 C1         -0.5520   10.7170   10.3680 C.2       1 SUB1        0.143
     15 C9         -1.3760    8.7660   13.3130 C.3       1 SUB1       -0.019
     16 C10        -0.0900    7.9790   13.5770 C.3       1 SUB1       -0.013
     17 C14         0.2210    6.8550   12.5880 C.ar      1 SUB1       -0.042
     18 C13         1.1890    7.0310   11.5850 C.ar      1 SUB1       -0.060
     19 C12         1.5000    6.0000   10.6790 C.ar      1 SUB1       -0.069
     20 C15        -0.4210    5.6130   12.6800 C.ar      1 SUB1       -0.060
     21 C16        -0.1050    4.5860   11.7730 C.ar      1 SUB1       -0.069
     22 C11         0.8590    4.7600   10.7710 C.ar      1 SUB1       -0.069
     23 H          -2.6317    7.9521    9.4247 H         1 SUB1        0.209
     24 H          -4.1931    9.4926    8.7601 H         1 SUB1        0.059
     25 H          -3.3966    9.4417    7.1206 H         1 SUB1        0.059
     26 H          -2.9379   11.3659    8.6132 H         1 SUB1        0.070
     27 H          -0.5017    9.7330    7.7130 H         1 SUB1        0.065
     28 H          -0.7411   10.9429    5.7795 H         1 SUB1        0.210
     29 H          -0.9947   12.6479    8.2273 H         1 SUB1        0.068
     30 H           1.2797   12.9585    7.7191 H         1 SUB1        0.210
     31 H           1.2805   10.9769    9.4465 H         1 SUB1        0.086
     32 H           1.3777   13.2356    9.5930 H         1 SUB1        0.214
     33 H          -3.1478    8.8627   10.9231 H         1 SUB1        0.066
     34 H          -2.2231    8.0801   13.3076 H         1 SUB1        0.039
     35 H          -1.5088    9.5119   14.0966 H         1 SUB1        0.039
     36 H          -0.2149    7.5050   14.5506 H         1 SUB1        0.044
     37 H           0.7290    8.6937   13.4964 H         1 SUB1        0.044
     38 H           1.7097    7.9854   11.5070 H         1 SUB1        0.056
     39 H           2.2447    6.1686    9.9011 H         1 SUB1        0.060
     40 H          -1.1670    5.4425   13.4563 H         1 SUB1        0.056
     41 H          -0.6231    3.6302   11.8513 H         1 SUB1        0.060
     42 H           1.1027    3.9513   10.0821 H         1 SUB1        0.056
@<TRIPOS>BOND
     1    1    2 1  
     2    2    3 1  
     3    3    4 1  
     4    3   10 1  
     5    4    5 1  
     6    4    6 1  
     7    6    7 1  
     8    6    8 1  
     9    8    9 1  
    10    8   14 1  
    11   10   11 1  
    12   10   14 1  
    13   11   12 2  
    14   12   13 1  
    15   12   15 1  
    16   13   14 2  
    17   15   16 1  
    18   16   17 1  
    19   17   18 ar 
    20   17   20 ar 
    21   18   19 ar 
    22   19   22 ar 
    23   20   21 ar 
    24   21   22 ar 
    25    1   23 1  
    26    2   24 1  
    27    2   25 1  
    28    3   26 1  
    29    4   27 1  
    30    5   28 1  
    31    6   29 1  
    32    7   30 1  
    33    8   31 1  
    34    9   32 1  
    35   11   33 1  
    36   15   34 1  
    37   15   35 1  
    38   16   36 1  
    39   16   37 1  
    40   18   38 1  
    41   19   39 1  
    42   20   40 1  
    43   21   41 1  
    44   22   42 1  
@<TRIPOS>SUBSTRUCTURE
     1 SUB1        1 GROUP

