1njj_ligand
  -I-interpret- 

 78 80  0  0  0  0  0  0  0  0999 V2000
   76.6540   85.3650  121.5890 C   0  0  0  0  0
   77.3340   84.0990  121.4000 O   0  0  0  0  0
   76.3600   85.9900  120.2060 C   0  0  0  0  0
   77.6220   86.1750  119.4660 N   0  3  0  0  0
   75.6440   87.3360  120.3650 C   0  0  0  0  0
   74.3610   87.1160  120.9630 O   0  0  0  0  0
   76.4420   88.3170  121.2370 C   0  0  0  0  0
   77.5060   88.8350  120.4610 O   0  0  0  0  0
   77.0310   87.6670  122.5360 C   0  0  0  0  0
   77.4600   86.2540  122.4280 O   0  0  0  0  0
   76.0270   87.8530  123.7010 C   0  0  0  0  0
   76.4320   87.0270  124.8460 O   0  0  0  0  0
   75.9890   89.3340  124.1430 C   0  0  0  0  0
   75.7750   80.0440  120.8100 C   0  0  0  0  0
   74.6740   79.0710  120.9310 N   0  3  0  0  0
   76.1510   80.5580  122.2340 C   0  0  0  0  0
   77.0880   81.7900  122.1970 C   0  0  0  0  0
   77.3590   82.2350  123.5720 N   0  3  0  0  0
   76.4500   82.9440  121.3810 C   0  0  0  0  0
   76.1880   82.4780  119.9110 C   0  0  0  0  0
   75.4840   83.4840  119.1890 O   0  0  0  0  0
   75.3420   81.1800  119.8140 C   0  0  0  0  0
   75.4570   80.7000  118.4680 O   0  0  0  0  0
   74.1600   80.5820  117.8770 C   0  0  0  0  0
   73.8880   79.1610  117.3140 C   0  0  0  0  0
   75.0330   78.7390  116.5670 O   0  0  0  0  0
   72.6320   79.0880  116.3720 C   0  0  0  0  0
   71.5990   78.2740  117.0700 N   0  3  0  0  0
   71.8590   76.8330  116.8420 C   0  0  0  0  0
   71.9670   80.4490  115.8590 C   0  0  0  0  0
   70.6630   80.5350  116.3930 O   0  0  0  0  0
   71.8540   80.3780  114.3230 C   0  0  0  0  0
   72.7420   81.7670  116.2350 C   0  0  0  0  0
   74.0710   81.5320  116.7900 O   0  0  0  0  0
   75.7017   85.1901  122.1110 H   0  0  0  0  0
   75.6999   85.3181  119.6380 H   0  0  0  0  0
   77.4185   86.5826  118.5669 H   0  0  0  0  0
   78.2322   86.7940  119.9764 H   0  0  0  0  0
   78.0733   85.2843  119.3280 H   0  0  0  0  0
   75.5158   87.7932  119.3728 H   0  0  0  0  0
   73.9130   87.9477  121.0637 H   0  0  0  0  0
   75.7768   89.1357  121.5487 H   0  0  0  0  0
   78.0113   89.4449  120.9855 H   0  0  0  0  0
   77.9297   88.2445  122.7982 H   0  0  0  0  0
   75.0202   87.5604  123.3684 H   0  0  0  0  0
   76.4462   86.1133  124.5866 H   0  0  0  0  0
   75.2712   89.4428  124.9694 H   0  0  0  0  0
   76.9846   89.6476  124.4898 H   0  0  0  0  0
   75.6674   89.9679  123.3035 H   0  0  0  0  0
   76.6556   79.5478  120.3761 H   0  0  0  0  0
   74.9496   78.3413  121.5695 H   0  0  0  0  0
   73.8500   79.5272  121.2899 H   0  0  0  0  0
   74.4761   78.6622  120.0312 H   0  0  0  0  0
   75.2318   80.8445  122.7659 H   0  0  0  0  0
   76.6658   79.7543  122.7808 H   0  0  0  0  0
   78.0340   81.5119  121.7094 H   0  0  0  0  0
   77.9691   83.0369  123.5432 H   0  0  0  0  0
   76.4970   82.4946  124.0255 H   0  0  0  0  0
   77.8109   81.4973  124.0893 H   0  0  0  0  0
   75.4838   83.2182  121.8295 H   0  0  0  0  0
   77.1584   82.2868  119.4296 H   0  0  0  0  0
   75.3327   83.1865  118.2995 H   0  0  0  0  0
   74.2889   81.4293  120.0107 H   0  0  0  0  0
   73.3950   80.8258  118.6289 H   0  0  0  0  0
   73.7163   78.4733  118.1552 H   0  0  0  0  0
   75.7928   78.7216  117.1370 H   0  0  0  0  0
   72.9470   78.5566  115.4619 H   0  0  0  0  0
   71.6325   78.4576  118.0605 H   0  0  0  0  0
   70.6855   78.5006  116.7092 H   0  0  0  0  0
   71.0897   76.2436  117.3623 H   0  0  0  0  0
   71.8145   76.6095  115.7659 H   0  0  0  0  0
   72.8479   76.5626  117.2406 H   0  0  0  0  0
   70.2533   81.3395  116.0972 H   0  0  0  0  0
   71.3977   81.3084  113.9541 H   0  0  0  0  0
   72.8539   80.2686  113.8780 H   0  0  0  0  0
   71.2191   79.5280  114.0325 H   0  0  0  0  0
   72.8600   82.3783  115.3282 H   0  0  0  0  0
   72.1573   82.3187  116.9858 H   0  0  0  0  0
  2  1  1  0  0  0
  1  3  1  0  0  0
  1 10  1  0  0  0
 19  2  1  0  0  0
  3  4  1  0  0  0
  3  5  1  0  0  0
  5  6  1  0  0  0
  5  7  1  0  0  0
  7  8  1  0  0  0
  9  7  1  0  0  0
 10  9  1  0  0  0
  9 11  1  0  0  0
 11 12  1  0  0  0
 11 13  1  0  0  0
 14 15  1  0  0  0
 16 14  1  0  0  0
 17 16  1  0  0  0
 17 18  1  0  0  0
 19 17  1  0  0  0
 19 20  1  0  0  0
 20 21  1  0  0  0
 20 22  1  0  0  0
 22 14  1  0  0  0
 22 23  1  0  0  0
 23 24  1  0  0  0
 24 25  1  0  0  0
 24 34  1  0  0  0
 25 26  1  0  0  0
 25 27  1  0  0  0
 27 28  1  0  0  0
 27 30  1  0  0  0
 28 29  1  0  0  0
 30 31  1  0  0  0
 30 32  1  0  0  0
 30 33  1  0  0  0
 33 34  1  0  0  0
  1 35  1  0  0  0
  3 36  1  0  0  0
  4 37  1  0  0  0
  4 38  1  0  0  0
  4 39  1  0  0  0
  5 40  1  0  0  0
  6 41  1  0  0  0
  7 42  1  0  0  0
  8 43  1  0  0  0
  9 44  1  0  0  0
 11 45  1  0  0  0
 12 46  1  0  0  0
 13 47  1  0  0  0
 13 48  1  0  0  0
 13 49  1  0  0  0
 14 50  1  0  0  0
 15 51  1  0  0  0
 15 52  1  0  0  0
 15 53  1  0  0  0
 16 54  1  0  0  0
 16 55  1  0  0  0
 17 56  1  0  0  0
 18 57  1  0  0  0
 18 58  1  0  0  0
 18 59  1  0  0  0
 19 60  1  0  0  0
 20 61  1  0  0  0
 21 62  1  0  0  0
 22 63  1  0  0  0
 24 64  1  0  0  0
 25 65  1  0  0  0
 26 66  1  0  0  0
 27 67  1  0  0  0
 28 68  1  0  0  0
 28 69  1  0  0  0
 29 70  1  0  0  0
 29 71  1  0  0  0
 29 72  1  0  0  0
 31 73  1  0  0  0
 32 74  1  0  0  0
 32 75  1  0  0  0
 32 76  1  0  0  0
 33 77  1  0  0  0
 33 78  1  0  0  0
M  END
$$$$
