### 
### Created by X-TOOL on Tue Oct 25 02:23:42 2005
### 

@<TRIPOS>MOLECULE
1njj_ligand
   78    80     1     0     0
SMALL
GAST_HUCK


@<TRIPOS>ATOM
      1 C11        76.6540   85.3650  121.5890 C.3       1 SUB1        0.206
      2 O11        77.3340   84.0990  121.4000 O.3       1 SUB1       -0.335
      3 C21        76.3600   85.9900  120.2060 C.3       1 SUB1        0.057
      4 N21        77.6220   86.1750  119.4660 N.4       1 SUB1        0.226
      5 C31        75.6440   87.3360  120.3650 C.3       1 SUB1        0.130
      6 O31        74.3610   87.1160  120.9630 O.3       1 SUB1       -0.383
      7 C41        76.4420   88.3170  121.2370 C.3       1 SUB1        0.115
      8 O41        77.5060   88.8350  120.4610 O.3       1 SUB1       -0.386
      9 C51        77.0310   87.6670  122.5360 C.3       1 SUB1        0.116
     10 O51        77.4600   86.2540  122.4280 O.3       1 SUB1       -0.338
     11 C61        76.0270   87.8530  123.7010 C.3       1 SUB1        0.081
     12 O61        76.4320   87.0270  124.8460 O.3       1 SUB1       -0.389
     13 C71        75.9890   89.3340  124.1430 C.3       1 SUB1       -0.036
     14 C12        75.7750   80.0440  120.8100 C.3       1 SUB1        0.010
     15 N12        74.6740   79.0710  120.9310 N.4       1 SUB1        0.223
     16 C22        76.1510   80.5580  122.2340 C.3       1 SUB1        0.038
     17 C32        77.0880   81.7900  122.1970 C.3       1 SUB1        0.010
     18 N32        77.3590   82.2350  123.5720 N.4       1 SUB1        0.223
     19 C42        76.4500   82.9440  121.3810 C.3       1 SUB1        0.133
     20 C52        76.1880   82.4780  119.9110 C.3       1 SUB1        0.118
     21 O52        75.4840   83.4840  119.1890 O.3       1 SUB1       -0.386
     22 C62        75.3420   81.1800  119.8140 C.3       1 SUB1        0.132
     23 O62        75.4570   80.7000  118.4680 O.3       1 SUB1       -0.337
     24 C13        74.1600   80.5820  117.8770 C.3       1 SUB1        0.191
     25 C23        73.8880   79.1610  117.3140 C.3       1 SUB1        0.151
     26 O23        75.0330   78.7390  116.5670 O.3       1 SUB1       -0.381
     27 C33        72.6320   79.0880  116.3720 C.3       1 SUB1        0.040
     28 N33        71.5990   78.2740  117.0700 N.4       1 SUB1        0.231
     29 C93        71.8590   76.8330  116.8420 C.3       1 SUB1       -0.044
     30 C43        71.9670   80.4490  115.8590 C.3       1 SUB1        0.131
     31 O43        70.6630   80.5350  116.3930 O.3       1 SUB1       -0.381
     32 C83        71.8540   80.3780  114.3230 C.3       1 SUB1       -0.029
     33 C53        72.7420   81.7670  116.2350 C.3       1 SUB1        0.085
     34 O53        74.0710   81.5320  116.7900 O.3       1 SUB1       -0.345
     35 H11        75.7017   85.1901  122.1110 H         1 SUB1        0.097
     36 H31        75.6999   85.3181  119.6380 H         1 SUB1        0.093
     37 H41        77.4185   86.5826  118.5669 H         1 SUB1        0.200
     38 H42        78.2322   86.7940  119.9764 H         1 SUB1        0.200
     39 H43        78.0733   85.2843  119.3280 H         1 SUB1        0.200
     40 H51        75.5158   87.7932  119.3728 H         1 SUB1        0.068
     41 H61        73.9130   87.9477  121.0637 H         1 SUB1        0.210
     42 H71        75.7768   89.1357  121.5487 H         1 SUB1        0.065
     43 H81        78.0113   89.4449  120.9855 H         1 SUB1        0.210
     44 H91        77.9297   88.2445  122.7982 H         1 SUB1        0.065
     45 H111       75.0202   87.5604  123.3684 H         1 SUB1        0.062
     46 H121       76.4462   86.1133  124.5866 H         1 SUB1        0.210
     47 H131       75.2712   89.4428  124.9694 H         1 SUB1        0.025
     48 H132       76.9846   89.6476  124.4898 H         1 SUB1        0.025
     49 H133       75.6674   89.9679  123.3035 H         1 SUB1        0.025
     50 H141       76.6556   79.5478  120.3761 H         1 SUB1        0.088
     51 H151       74.9496   78.3413  121.5695 H         1 SUB1        0.200
     52 H152       73.8500   79.5272  121.2899 H         1 SUB1        0.200
     53 H153       74.4761   78.6622  120.0312 H         1 SUB1        0.200
     54 H161       75.2318   80.8445  122.7659 H         1 SUB1        0.038
     55 H162       76.6658   79.7543  122.7808 H         1 SUB1        0.038
     56 H171       78.0340   81.5119  121.7094 H         1 SUB1        0.088
     57 H181       77.9691   83.0369  123.5432 H         1 SUB1        0.200
     58 H182       76.4970   82.4946  124.0255 H         1 SUB1        0.200
     59 H183       77.8109   81.4973  124.0893 H         1 SUB1        0.200
     60 H191       75.4838   83.2182  121.8295 H         1 SUB1        0.068
     61 H201       77.1584   82.2868  119.4296 H         1 SUB1        0.065
     62 H211       75.3327   83.1865  118.2995 H         1 SUB1        0.210
     63 H221       74.2889   81.4293  120.0107 H         1 SUB1        0.068
     64 H241       73.3950   80.8258  118.6289 H         1 SUB1        0.094
     65 H251       73.7163   78.4733  118.1552 H         1 SUB1        0.070
     66 H261       75.7928   78.7216  117.1370 H         1 SUB1        0.210
     67 H271       72.9470   78.5566  115.4619 H         1 SUB1        0.091
     68 H281       71.6325   78.4576  118.0605 H         1 SUB1        0.201
     69 H282       70.6855   78.5006  116.7092 H         1 SUB1        0.201
     70 H291       71.0897   76.2436  117.3623 H         1 SUB1        0.078
     71 H292       71.8145   76.6095  115.7659 H         1 SUB1        0.078
     72 H293       72.8479   76.5626  117.2406 H         1 SUB1        0.078
     73 H311       70.2533   81.3395  116.0972 H         1 SUB1        0.211
     74 H321       71.3977   81.3084  113.9541 H         1 SUB1        0.026
     75 H322       72.8539   80.2686  113.8780 H         1 SUB1        0.026
     76 H323       71.2191   79.5280  114.0325 H         1 SUB1        0.026
     77 H331       72.8600   82.3783  115.3282 H         1 SUB1        0.059
     78 H332       72.1573   82.3187  116.9858 H         1 SUB1        0.059
@<TRIPOS>BOND
     1    2    1 1  
     2    1    3 1  
     3    1   10 1  
     4   19    2 1  
     5    3    4 1  
     6    3    5 1  
     7    5    6 1  
     8    5    7 1  
     9    7    8 1  
    10    9    7 1  
    11   10    9 1  
    12    9   11 1  
    13   11   12 1  
    14   11   13 1  
    15   14   15 1  
    16   16   14 1  
    17   17   16 1  
    18   17   18 1  
    19   19   17 1  
    20   19   20 1  
    21   20   21 1  
    22   20   22 1  
    23   22   14 1  
    24   22   23 1  
    25   23   24 1  
    26   24   25 1  
    27   24   34 1  
    28   25   26 1  
    29   25   27 1  
    30   27   28 1  
    31   27   30 1  
    32   28   29 1  
    33   30   31 1  
    34   30   32 1  
    35   30   33 1  
    36   33   34 1  
    37    1   35 1  
    38    3   36 1  
    39    4   37 1  
    40    4   38 1  
    41    4   39 1  
    42    5   40 1  
    43    6   41 1  
    44    7   42 1  
    45    8   43 1  
    46    9   44 1  
    47   11   45 1  
    48   12   46 1  
    49   13   47 1  
    50   13   48 1  
    51   13   49 1  
    52   14   50 1  
    53   15   51 1  
    54   15   52 1  
    55   15   53 1  
    56   16   54 1  
    57   16   55 1  
    58   17   56 1  
    59   18   57 1  
    60   18   58 1  
    61   18   59 1  
    62   19   60 1  
    63   20   61 1  
    64   21   62 1  
    65   22   63 1  
    66   24   64 1  
    67   25   65 1  
    68   26   66 1  
    69   27   67 1  
    70   28   68 1  
    71   28   69 1  
    72   29   70 1  
    73   29   71 1  
    74   29   72 1  
    75   31   73 1  
    76   32   74 1  
    77   32   75 1  
    78   32   76 1  
    79   33   77 1  
    80   33   78 1  
@<TRIPOS>SUBSTRUCTURE
     1 SUB1        1 GROUP

