### 
### Created by X-TOOL on Sun Jun  3 11:53:38 2007
### 

@<TRIPOS>MOLECULE
2bo4_ligand
   18    17     1     0     0
SMALL
GAST_HUCK


@<TRIPOS>ATOM
      1 CAC        87.9430   -2.3560   42.4440 C.2       1 SUB1        0.348
      2 CA         87.3510   -2.3750   41.0680 C.3       1 SUB1        0.101
      3 CB         85.8300   -2.1700   41.0840 C.3       1 SUB1        0.204
      4 CBC        85.1930   -2.5880   42.4120 C.2       1 SUB1        0.393
      5 CG         85.4550   -0.7180   40.7060 C.3       1 SUB1        0.101
      6 CGC        84.1510   -0.6060   39.9280 C.2       1 SUB1        0.348
      7 OA1        88.7230   -3.2740   42.7910 O.2       1 SUB1       -0.262
      8 OA2        87.6140   -1.3980   43.1800 O.2       1 SUB1       -0.262
      9 OB1        84.7070   -1.7710   43.2570 O.2       1 SUB1       -0.241
     10 OB2        85.1790   -3.8180   42.6320 O.2       1 SUB1       -0.241
     11 OG1        83.3440    0.2770   40.2400 O.2       1 SUB1       -0.262
     12 OG2        83.9050   -1.3790   38.9820 O.2       1 SUB1       -0.262
     13 OHB        85.3820   -3.1190   40.1090 O.3       1 SUB1       -0.377
     14 H          87.5557   -3.3500   40.6257 H         1 SUB1        0.051
     15 H          87.7957   -1.5594   40.4977 H         1 SUB1        0.051
     16 H          86.2497   -0.3315   40.0679 H         1 SUB1        0.051
     17 H          85.3295   -0.1613   41.6347 H         1 SUB1        0.051
     18 H          84.4238   -3.0934   40.0559 H         1 SUB1        0.209
@<TRIPOS>BOND
     1    1    2 1  
     2    1    7 2  
     3    1    8 2  
     4    2    3 1  
     5    3    4 1  
     6    3    5 1  
     7    3   13 1  
     8    4    9 2  
     9    4   10 2  
    10    5    6 1  
    11    6   11 2  
    12    6   12 2  
    13    2   14 1  
    14    2   15 1  
    15    5   16 1  
    16    5   17 1  
    17   13   18 1  
@<TRIPOS>SUBSTRUCTURE
     1 SUB1        1 GROUP

