2bo4_ligand
  -I-interpret- 

 18 17  0  0  0  0  0  0  0  0999 V2000
   87.9430   -2.3560   42.4440 C   0  0  0  0  0
   87.3510   -2.3750   41.0680 C   0  0  0  0  0
   85.8300   -2.1700   41.0840 C   0  0  0  0  0
   85.1930   -2.5880   42.4120 C   0  0  0  0  0
   85.4550   -0.7180   40.7060 C   0  0  0  0  0
   84.1510   -0.6060   39.9280 C   0  0  0  0  0
   88.7230   -3.2740   42.7910 O   0  5  0  0  0
   87.6140   -1.3980   43.1800 O   0  0  0  0  0
   84.7070   -1.7710   43.2570 O   0  5  0  0  0
   85.1790   -3.8180   42.6320 O   0  0  0  0  0
   83.3440    0.2770   40.2400 O   0  0  0  0  0
   83.9050   -1.3790   38.9820 O   0  5  0  0  0
   85.3820   -3.1190   40.1090 O   0  0  0  0  0
   87.5557   -3.3500   40.6257 H   0  0  0  0  0
   87.7957   -1.5594   40.4977 H   0  0  0  0  0
   86.2497   -0.3315   40.0679 H   0  0  0  0  0
   85.3295   -0.1613   41.6347 H   0  0  0  0  0
   84.4238   -3.0934   40.0559 H   0  0  0  0  0
  1  2  1  0  0  0
  1  7  1  0  0  0
  1  8  2  0  0  0
  2  3  1  0  0  0
  3  4  1  0  0  0
  3  5  1  0  0  0
  3 13  1  0  0  0
  4  9  1  0  0  0
  4 10  2  0  0  0
  5  6  1  0  0  0
  6 11  2  0  0  0
  6 12  1  0  0  0
  2 14  1  0  0  0
  2 15  1  0  0  0
  5 16  1  0  0  0
  5 17  1  0  0  0
 13 18  1  0  0  0
M  END
$$$$
