### 
### Created by X-TOOL on Mon Oct 24 23:14:01 2005
### 

@<TRIPOS>MOLECULE
1v16_ligand
   42    43     1     0     0
SMALL
GAST_HUCK


@<TRIPOS>ATOM
      1 N1         77.0480    0.6410   11.1880 N.ar      1 SUB1       -0.294
      2 C2         77.2970    1.8180   11.7370 C.ar      1 SUB1        0.076
      3 C2A        77.4390    1.9950   13.2770 C.3       1 SUB1       -0.003
      4 N3         77.3660    2.9110   10.9250 N.ar      1 SUB1       -0.261
      5 C4         77.2880    2.8510    9.5620 C.ar      1 SUB1        0.122
      6 N4         77.4280    4.0190    8.8930 N.pl3     1 SUB1       -0.319
      7 C5         77.0280    1.5860    8.9620 C.ar      1 SUB1        0.033
      8 C6         76.8830    0.5040    9.8490 C.ar      1 SUB1        0.007
      9 C35        76.8820    1.3990    7.4130 C.3       1 SUB1        0.056
     10 N3         75.6030    2.0070    6.9640 N.2       1 SUB1       -0.275
     11 C2         75.7460    3.2910    6.3050 C.2       1 SUB1        0.135
     12 S1         74.0010    3.6320    5.8920 S.3       1 SUB1        0.116
     13 C5         73.3200    2.1500    6.5060 C.2       1 SUB1        0.173
     14 C4         74.3850    1.4030    7.0040 C.2       1 SUB1        0.131
     15 C4A        74.2570   -0.0260    7.6160 C.3       1 SUB1        0.023
     16 C5A        71.8230    1.9030    6.4000 C.3       1 SUB1        0.083
     17 C5B        71.0440    2.9360    7.2280 C.3       1 SUB1        0.111
     18 O5G        69.6330    2.7480    7.1180 O.3       1 SUB1       -0.249
     19 P1         68.6320    3.7430    7.6910 P.3       1 SUB1        0.373
     20 O11        68.7560    5.0370    6.7470 O.3       1 SUB1       -0.257
     21 O12        69.0550    4.1690    9.0430 O.co2     1 SUB1       -0.457
     22 O13        67.2850    3.1100    7.5310 O.co2     1 SUB1       -0.457
     23 P2         68.4960    5.1530    5.1220 P.3       1 SUB1        0.158
     24 O21        69.8340    4.8260    4.4440 O.co2     1 SUB1       -0.616
     25 O22        67.4040    4.1630    4.7500 O.co2     1 SUB1       -0.616
     26 O23        68.0850    6.5580    4.8500 O.co2     1 SUB1       -0.616
     27 H31        77.3584    1.0139   13.7678 H         1 SUB1        0.045
     28 H32        76.6405    2.6559   13.6453 H         1 SUB1        0.045
     29 H33        78.4184    2.4402   13.5062 H         1 SUB1        0.045
     30 H61        77.3779    4.0325    7.8643 H         1 SUB1        0.179
     31 H62        77.5847    4.8945    9.4125 H         1 SUB1        0.179
     32 H81        76.6311   -0.4715    9.4490 H         1 SUB1        0.079
     33 H91        76.8840    0.3261    7.1705 H         1 SUB1        0.056
     34 H92        77.7224    1.8919    6.9024 H         1 SUB1        0.056
     35 H111       76.6395    3.8828    6.1117 H         1 SUB1        0.166
     36 H151       73.2083   -0.3541    7.5650 H         1 SUB1        0.060
     37 H152       74.5842   -0.0059    8.6660 H         1 SUB1        0.060
     38 H153       74.8881   -0.7258    7.0486 H         1 SUB1        0.060
     39 H161       71.5958    0.8940    6.7746 H         1 SUB1        0.077
     40 H162       71.5177    1.9802    5.3461 H         1 SUB1        0.077
     41 H171       71.2979    3.9444    6.8694 H         1 SUB1        0.069
     42 H172       71.3350    2.8383    8.2843 H         1 SUB1        0.069
@<TRIPOS>BOND
     1    1    2 ar 
     2    1    8 ar 
     3    2    3 1  
     4    2    4 ar 
     5    4    5 ar 
     6    5    6 1  
     7    5    7 ar 
     8    7    8 ar 
     9    7    9 1  
    10    9   10 1  
    11   10   11 2  
    12   10   14 1  
    13   11   12 1  
    14   12   13 1  
    15   13   14 2  
    16   13   16 1  
    17   14   15 1  
    18   16   17 1  
    19   17   18 1  
    20   18   19 1  
    21   19   20 1  
    22   19   21 2  
    23   19   22 2  
    24   20   23 1  
    25   23   24 2  
    26   23   25 2  
    27   23   26 2  
    28    3   27 1  
    29    3   28 1  
    30    3   29 1  
    31    6   30 1  
    32    6   31 1  
    33    8   32 1  
    34    9   33 1  
    35    9   34 1  
    36   11   35 1  
    37   15   36 1  
    38   15   37 1  
    39   15   38 1  
    40   16   39 1  
    41   16   40 1  
    42   17   41 1  
    43   17   42 1  
@<TRIPOS>SUBSTRUCTURE
     1 SUB1        1 GROUP

