### 
### Created by X-TOOL on Mon Oct 24 23:18:17 2005
### 

@<TRIPOS>MOLECULE
1z4o_ligand
   27    27     1     0     0
SMALL
GAST_HUCK


@<TRIPOS>ATOM
      1 C1          4.8630   -3.8340   13.1020 C.3       1 SUB1        0.206
      2 C2          3.7100   -2.8250   13.0430 C.3       1 SUB1        0.138
      3 C3          3.9590   -1.7790   11.9650 C.3       1 SUB1        0.115
      4 C4          5.3550   -1.0560   12.2000 C.3       1 SUB1        0.112
      5 C5          6.4450   -2.1610   12.2920 C.3       1 SUB1        0.113
      6 C6          7.8260   -1.5370   12.6670 C.3       1 SUB1        0.073
      7 O1          5.0270   -4.4990   11.8610 O.3       1 SUB1       -0.290
      8 O2          2.4500   -3.5190   12.8000 O.3       1 SUB1       -0.384
      9 O3          2.8970   -0.8310   11.9480 O.3       1 SUB1       -0.386
     10 O4          5.2700   -0.2130   13.3760 O.3       1 SUB1       -0.387
     11 O5          6.1030   -3.1090   13.3260 O.3       1 SUB1       -0.337
     12 O6          8.1120   -0.6170   11.6800 O.3       1 SUB1       -0.392
     13 P           4.3670   -5.9670   11.5460 P.3       1 SUB1        0.207
     14 O1P         4.8140   -6.4880   10.1390 O.co2     1 SUB1       -0.535
     15 O2P         4.9190   -6.8730   12.6790 O.co2     1 SUB1       -0.535
     16 O3P         2.8020   -5.9120   11.6510 O.co2     1 SUB1       -0.535
     17 H11         4.6817   -4.5618   13.9066 H         1 SUB1        0.099
     18 H21         3.6453   -2.3130   14.0144 H         1 SUB1        0.068
     19 H31         3.9903   -2.2846   10.9886 H         1 SUB1        0.065
     20 H41         5.5828   -0.4141   11.3363 H         1 SUB1        0.065
     21 H51         6.5209   -2.6766   11.3233 H         1 SUB1        0.065
     22 H61         8.6013   -2.3167   12.6979 H         1 SUB1        0.058
     23 H62         7.7667   -1.0398   13.6464 H         1 SUB1        0.058
     24 H81         2.4849   -3.9494   11.9538 H         1 SUB1        0.210
     25 H91         2.0732   -1.2825   11.8066 H         1 SUB1        0.210
     26 H101        4.5874    0.4357   13.2506 H         1 SUB1        0.210
     27 H121        8.9489   -0.2067   11.8640 H         1 SUB1        0.209
@<TRIPOS>BOND
     1    1    2 1  
     2    1    7 1  
     3    1   11 1  
     4    2    3 1  
     5    2    8 1  
     6    3    4 1  
     7    3    9 1  
     8    4    5 1  
     9    4   10 1  
    10    5    6 1  
    11    5   11 1  
    12    6   12 1  
    13    7   13 1  
    14   13   14 2  
    15   13   15 2  
    16   13   16 2  
    17    1   17 1  
    18    2   18 1  
    19    3   19 1  
    20    4   20 1  
    21    5   21 1  
    22    6   22 1  
    23    6   23 1  
    24    8   24 1  
    25    9   25 1  
    26   10   26 1  
    27   12   27 1  
@<TRIPOS>SUBSTRUCTURE
     1 SUB1        1 GROUP

