### 
### Created by X-TOOL on Mon Oct 24 22:35:01 2005
### 

@<TRIPOS>MOLECULE
1zdp_ligand
   31    31     1     0     0
SMALL
GAST_HUCK


@<TRIPOS>ATOM
      1 SG1        35.9780   42.5960   -6.6940 S.3       1 SUB1       -0.175
      2 CB1        35.5080   41.9090   -5.0620 C.3       1 SUB1        0.012
      3 CA1        36.5470   42.3690   -4.0240 C.3       1 SUB1        0.067
      4 C          37.9330   41.6360   -3.8810 C.2       1 SUB1        0.185
      5 O          39.0790   42.2020   -3.8060 O.2       1 SUB1       -0.396
      6 CB2        35.7210   42.1760   -2.7970 C.3       1 SUB1        0.001
      7 CG2        36.5990   42.7150   -1.7360 C.ar      1 SUB1       -0.041
      8 CD1        37.1950   43.9660   -1.9310 C.ar      1 SUB1       -0.060
      9 CD2        36.7960   41.9440   -0.5910 C.ar      1 SUB1       -0.060
     10 CE1        38.0200   44.4970   -0.9440 C.ar      1 SUB1       -0.069
     11 CE2        37.6440   42.4630    0.3870 C.ar      1 SUB1       -0.069
     12 CZ         38.2130   43.7310    0.2110 C.ar      1 SUB1       -0.069
     13 N          37.7820   40.3140   -3.8400 N.am      1 SUB1       -0.273
     14 CA2        38.8530   39.2870   -3.7720 C.3       1 SUB1        0.070
     15 C1         38.6030   38.3270   -4.9870 C.2       1 SUB1        0.050
     16 O1         37.4440   38.2600   -5.5230 O.co2     1 SUB1       -0.564
     17 OH         39.5470   37.6070   -5.4400 O.co2     1 SUB1       -0.564
     18 H11        35.3063   42.3035   -7.3864 H         1 SUB1        0.102
     19 H21        35.4937   40.8102   -5.1116 H         1 SUB1        0.040
     20 H22        34.5109   42.2762   -4.7775 H         1 SUB1        0.040
     21 H31        36.7695   43.4334   -4.1898 H         1 SUB1        0.057
     22 H61        35.5007   41.1115   -2.6288 H         1 SUB1        0.045
     23 H62        34.7787   42.7402   -2.8586 H         1 SUB1        0.045
     24 H81        37.0150   44.5186   -2.8461 H         1 SUB1        0.056
     25 H91        36.3109   40.9826   -0.4664 H         1 SUB1        0.056
     26 H101       38.4937   45.4645   -1.0650 H         1 SUB1        0.060
     27 H111       37.8619   41.8877    1.2795 H         1 SUB1        0.060
     28 H121       38.8300   44.1367    1.0046 H         1 SUB1        0.056
     29 H131       36.8417   39.9741   -3.8569 H         1 SUB1        0.190
     30 H141       38.7905   38.7306   -2.8252 H         1 SUB1        0.074
     31 H142       39.8428   39.7598   -3.8549 H         1 SUB1        0.074
@<TRIPOS>BOND
     1    1    2 1  
     2    2    3 1  
     3    3    4 1  
     4    3    6 1  
     5    4    5 2  
     6    4   13 am 
     7    6    7 1  
     8    7    8 ar 
     9    7    9 ar 
    10    8   10 ar 
    11    9   11 ar 
    12   10   12 ar 
    13   11   12 ar 
    14   13   14 1  
    15   14   15 1  
    16   15   16 2  
    17   15   17 2  
    18    1   18 1  
    19    2   19 1  
    20    2   20 1  
    21    3   21 1  
    22    6   22 1  
    23    6   23 1  
    24    8   24 1  
    25    9   25 1  
    26   10   26 1  
    27   11   27 1  
    28   12   28 1  
    29   13   29 1  
    30   14   30 1  
    31   14   31 1  
@<TRIPOS>SUBSTRUCTURE
     1 SUB1        1 GROUP

