### 
### Created by X-TOOL on Mon Oct 24 22:39:04 2005
### 

@<TRIPOS>MOLECULE
5er2_ligand
  143   146     1     0     0
SMALL
GAST_HUCK


@<TRIPOS>ATOM
      1 OT1         1.8910   27.1630   20.0240 O.2       1 SUB1       -0.377
      2 CT1         2.6450   26.3830   19.4510 C.2       1 SUB1        0.322
      3 OT2         2.5120   24.9680   19.4990 O.3       1 SUB1       -0.258
      4 CT2         1.4250   24.4700   20.2720 C.3       1 SUB1        0.090
      5 CT3         1.5230   22.9370   20.2300 C.3       1 SUB1       -0.032
      6 CT4         0.0820   24.9150   19.6930 C.3       1 SUB1       -0.032
      7 CT5         1.5460   24.9270   21.7290 C.3       1 SUB1       -0.032
      8 N           3.6800   26.7560   18.7220 N.am      1 SUB1       -0.239
      9 CA          4.0640   28.1530   18.4910 C.3       1 SUB1        0.142
     10 C           3.2970   28.7290   17.3100 C.2       1 SUB1        0.206
     11 O           2.9620   28.0120   16.3730 O.2       1 SUB1       -0.394
     12 CB          5.5660   28.2490   18.2070 C.3       1 SUB1        0.021
     13 CG          6.3520   28.1020   19.5110 C.ar      1 SUB1       -0.039
     14 CD1         5.9790   28.8470   20.6230 C.ar      1 SUB1       -0.060
     15 CD2         7.4280   27.2250   19.5620 C.ar      1 SUB1       -0.060
     16 CE1         6.6930   28.7160   21.8090 C.ar      1 SUB1       -0.069
     17 CE2         8.1370   27.1000   20.7510 C.ar      1 SUB1       -0.069
     18 CZ          7.7710   27.8400   21.8690 C.ar      1 SUB1       -0.069
     19 N           3.0910   30.0400   17.3820 N.am      1 SUB1       -0.262
     20 CA          2.3720   30.7220   16.2530 C.3       1 SUB1        0.142
     21 C           3.0440   32.0620   15.9940 C.2       1 SUB1        0.204
     22 O           2.6860   33.0900   16.5650 O.2       1 SUB1       -0.394
     23 CB          0.9320   30.9740   16.6510 C.3       1 SUB1        0.043
     24 CG          0.1370   31.3760   15.4140 C.2       1 SUB1        0.056
     25 ND1         0.5090   31.0740   14.1060 N.pl3     1 SUB1       -0.262
     26 CD2        -1.0600   32.1140   15.3660 C.2       1 SUB1       -0.028
     27 CE1        -0.4580   31.6090   13.2570 C.2       1 SUB1        0.087
     28 NE2        -1.4260   32.2670   14.0280 N.2       1 SUB1       -0.344
     29 N           4.0320   32.0130   15.1300 N.am      1 SUB1       -0.279
     30 CA          4.9180   33.1770   14.9660 C.3       1 SUB1        0.070
     31 CB          6.3790   32.7570   15.1140 C.3       1 SUB1       -0.025
     32 CG          6.7400   32.3700   16.5450 C.3       1 SUB1       -0.039
     33 CD1         6.3080   33.4030   17.5880 C.3       1 SUB1       -0.050
     34 CD2         8.2320   32.0600   16.6920 C.3       1 SUB1       -0.050
     35 CE1         6.5800   32.8580   18.9960 C.3       1 SUB1       -0.053
     36 CE2         8.5440   31.5320   18.0930 C.3       1 SUB1       -0.053
     37 CZ          8.0540   32.4910   19.1790 C.3       1 SUB1       -0.053
     38 CH          4.6570   33.8330   13.6040 C.3       1 SUB1        0.098
     39 OH          5.2410   33.0280   12.5730 O.3       1 SUB1       -0.387
     40 CM          3.1620   33.9930   13.3430 C.3       1 SUB1        0.062
     41 N1          2.9580   35.1140   12.4140 N.am      1 SUB1       -0.257
     42 CB2         2.5730   34.8420   11.0210 C.3       1 SUB1        0.037
     43 CG2         1.1240   34.3860   10.9140 C.3       1 SUB1       -0.026
     44 CD3         0.1630   35.5610   10.9230 C.3       1 SUB1       -0.061
     45 CD4         0.8930   33.4470    9.7460 C.3       1 SUB1       -0.061
     46 C           3.0430   36.3530   12.8660 C.2       1 SUB1        0.262
     47 O           3.2620   36.5440   14.0650 O.2       1 SUB1       -0.400
     48 N           3.0340   37.3660   12.0150 N.am      1 SUB1       -0.252
     49 CA          2.9300   38.7370   12.5440 C.3       1 SUB1        0.131
     50 C           1.4770   39.1560   12.6560 C.2       1 SUB1        0.205
     51 O           0.7080   39.0870   11.6980 O.2       1 SUB1       -0.394
     52 CB          3.6880   39.6980   11.6440 C.3       1 SUB1       -0.012
     53 CG          3.8990   41.0230   12.3560 C.3       1 SUB1       -0.044
     54 CD          4.0770   42.1490   11.3510 C.3       1 SUB1       -0.012
     55 CE          3.7560   43.4800   12.0150 C.3       1 SUB1       -0.035
     56 NZ          3.8870   44.5620   11.0270 N.4       1 SUB1        0.219
     57 N           1.0510   39.6000   13.8260 N.am      1 SUB1       -0.266
     58 CA         -0.3710   39.9870   13.9450 C.3       1 SUB1        0.091
     59 C          -0.4890   41.2800   14.7380 C.2       1 SUB1        0.055
     60 O          -0.2760   42.3520   14.1700 O.co2     1 SUB1       -0.564
     61 CB         -1.1590   38.8810   14.6350 C.3       1 SUB1        0.015
     62 CG         -2.3310   38.2850   13.8600 C.ar      1 SUB1       -0.038
     63 CD1        -3.4900   37.9290   14.5490 C.ar      1 SUB1       -0.060
     64 CD2        -2.3070   38.0710   12.4850 C.ar      1 SUB1       -0.060
     65 CE1        -4.5840   37.3830   13.8890 C.ar      1 SUB1       -0.069
     66 CE2        -3.3950   37.5240   11.8100 C.ar      1 SUB1       -0.069
     67 CZ         -4.5450   37.1760   12.5140 C.ar      1 SUB1       -0.069
     68 OXT        -0.7930   41.1760   16.0170 O.co2     1 SUB1       -0.564
     69 H81         4.2378   26.0411   18.3004 H         1 SUB1        0.190
     70 H91         3.8295   28.7392   19.3917 H         1 SUB1        0.082
     71 H121        5.7900   29.2261   17.7542 H         1 SUB1        0.047
     72 H122        5.8580   27.4475   17.5126 H         1 SUB1        0.047
     73 H141        5.1362   29.5264   20.5663 H         1 SUB1        0.056
     74 H151        7.7101   26.6476   18.6890 H         1 SUB1        0.056
     75 H161        6.4107   29.2936   22.6818 H         1 SUB1        0.060
     76 H171        8.9804   26.4213   20.8066 H         1 SUB1        0.060
     77 H181        8.3288   27.7337   22.7924 H         1 SUB1        0.056
     78 H191        3.4087   30.5628   18.1731 H         1 SUB1        0.189
     79 H201        2.4094   30.0964   15.3490 H         1 SUB1        0.082
     80 H231        0.8914   31.7837   17.3944 H         1 SUB1        0.049
     81 H232        0.5032   30.0578   17.0830 H         1 SUB1        0.049
     82 H251        1.3476   30.5498   13.8182 H         1 SUB1        0.239
     83 H261       -1.6068   32.4995   16.2252 H         1 SUB1        0.032
     84 H271       -0.4610   31.5288   12.1710 H         1 SUB1        0.115
     85 H481        3.0967   37.2039   11.0302 H         1 SUB1        0.188
     86 H491        3.3807   38.7626   13.5471 H         1 SUB1        0.080
     87 H521        3.1098   39.8675   10.7237 H         1 SUB1        0.031
     88 H522        4.6652   39.2628   11.3880 H         1 SUB1        0.031
     89 H531        4.7982   40.9555   12.9860 H         1 SUB1        0.027
     90 H532        3.0242   41.2372   12.9875 H         1 SUB1        0.027
     91 H541        3.3981   41.9911   10.5000 H         1 SUB1        0.032
     92 H542        5.1171   42.1596   10.9932 H         1 SUB1        0.032
     93 H551        4.4560   43.6544   12.8454 H         1 SUB1        0.081
     94 H552        2.7265   43.4586   12.4018 H         1 SUB1        0.081
     95 H561        4.8330   44.5872   10.6798 H         1 SUB1        0.199
     96 H562        3.6655   45.4435   11.4627 H         1 SUB1        0.199
     97 H563        3.2524   44.3967   10.2615 H         1 SUB1        0.199
     98 H571        1.6716   39.6719   14.6068 H         1 SUB1        0.190
     99 H581       -0.7842   40.1453   12.9379 H         1 SUB1        0.080
    100 H611       -1.5561   39.2919   15.5749 H         1 SUB1        0.049
    101 H612       -0.4582   38.0634   14.8595 H         1 SUB1        0.049
    102 H631       -3.5384   38.0813   15.6212 H         1 SUB1        0.056
    103 H641       -1.4179   38.3372   11.9249 H         1 SUB1        0.056
    104 H651       -5.4732   37.1168   14.4489 H         1 SUB1        0.060
    105 H661       -3.3470   37.3693   10.7382 H         1 SUB1        0.060
    106 H671       -5.3977   36.7499   11.9978 H         1 SUB1        0.056
    107 H51         0.7005   22.5008   20.8159 H         1 SUB1        0.026
    108 H52         2.4858   22.6193   20.6567 H         1 SUB1        0.026
    109 H53         1.4527   22.5935   19.1874 H         1 SUB1        0.026
    110 H61        -0.7347   24.5147   20.3117 H         1 SUB1        0.026
    111 H62        -0.0175   24.5367   18.6649 H         1 SUB1        0.026
    112 H63         0.0318   26.0138   19.6859 H         1 SUB1        0.026
    113 H71         0.6983   24.5326   22.3086 H         1 SUB1        0.026
    114 H72         1.5386   26.0262   21.7704 H         1 SUB1        0.026
    115 H73         2.4879   24.5504   22.1544 H         1 SUB1        0.026
    116 H291        4.1818   31.1878   14.5854 H         1 SUB1        0.186
    117 H301        4.6877   33.9087   15.7544 H         1 SUB1        0.058
    118 H311        7.0192   33.5963   14.8046 H         1 SUB1        0.029
    119 H312        6.5647   31.8932   14.4587 H         1 SUB1        0.029
    120 H321        6.1911   31.4430   16.7673 H         1 SUB1        0.030
    121 H331        5.2331   33.6084   17.4764 H         1 SUB1        0.027
    122 H332        6.8764   34.3330   17.4394 H         1 SUB1        0.027
    123 H341        8.8099   32.9794   16.5167 H         1 SUB1        0.027
    124 H342        8.5170   31.3004   15.9491 H         1 SUB1        0.027
    125 H351        5.9653   31.9601   19.1569 H         1 SUB1        0.026
    126 H352        6.3082   33.6258   19.7354 H         1 SUB1        0.026
    127 H361        9.6322   31.4061   18.1927 H         1 SUB1        0.026
    128 H362        8.0485   30.5590   18.2262 H         1 SUB1        0.026
    129 H371        8.1814   32.0111   20.1605 H         1 SUB1        0.026
    130 H372        8.6566   33.4104   19.1393 H         1 SUB1        0.026
    131 H381        5.1258   34.8280   13.5940 H         1 SUB1        0.064
    132 H391        5.0808   33.4321   11.7283 H         1 SUB1        0.210
    133 H401        2.6418   34.1990   14.2901 H         1 SUB1        0.055
    134 H402        2.7636   33.0687   12.8993 H         1 SUB1        0.055
    135 H421        3.2253   34.0529   10.6188 H         1 SUB1        0.052
    136 H422        2.7017   35.7608   10.4300 H         1 SUB1        0.052
    137 H431        0.9124   33.8041   11.8232 H         1 SUB1        0.032
    138 H441       -0.8698   35.1906   10.8443 H         1 SUB1        0.023
    139 H442        0.3820   36.2204   10.0702 H         1 SUB1        0.023
    140 H443        0.2803   36.1235   11.8610 H         1 SUB1        0.023
    141 H451        1.6158   32.6191    9.7927 H         1 SUB1        0.023
    142 H452        1.0252   33.9963    8.8022 H         1 SUB1        0.023
    143 H453       -0.1294   33.0444    9.7958 H         1 SUB1        0.023
@<TRIPOS>BOND
     1    9    8 1  
     2    9   12 1  
     3   10    9 1  
     4   10   11 2  
     5   12   13 1  
     6   13   14 ar 
     7   13   15 ar 
     8   15   17 ar 
     9   17   18 ar 
    10   16   18 ar 
    11   14   16 ar 
    12   20   19 1  
    13   20   23 1  
    14   21   20 1  
    15   21   22 2  
    16   23   24 1  
    17   24   25 1  
    18   24   26 2  
    19   26   28 1  
    20   28   27 2  
    21   25   27 1  
    22   19   10 am 
    23   48   49 1  
    24   49   52 1  
    25   49   50 1  
    26   50   51 2  
    27   52   53 1  
    28   53   54 1  
    29   54   55 1  
    30   55   56 1  
    31   57   58 1  
    32   58   61 1  
    33   58   59 1  
    34   59   60 2  
    35   59   68 2  
    36   61   62 1  
    37   62   63 ar 
    38   62   64 ar 
    39   64   66 ar 
    40   66   67 ar 
    41   65   67 ar 
    42   63   65 ar 
    43   50   57 am 
    44    2    1 2  
    45    2    3 1  
    46    3    4 1  
    47    4    5 1  
    48    4    6 1  
    49    4    7 1  
    50    8    2 am 
    51   29   21 am 
    52   30   29 1  
    53   30   31 1  
    54   38   30 1  
    55   31   32 1  
    56   32   33 1  
    57   32   34 1  
    58   33   35 1  
    59   34   36 1  
    60   35   37 1  
    61   36   37 1  
    62   38   39 1  
    63   40   38 1  
    64   41   40 1  
    65   41   42 1  
    66   46   41 am 
    67   42   43 1  
    68   43   44 1  
    69   43   45 1  
    70   46   47 2  
    71   46   48 am 
    72    8   69 1  
    73    9   70 1  
    74   12   71 1  
    75   12   72 1  
    76   14   73 1  
    77   15   74 1  
    78   16   75 1  
    79   17   76 1  
    80   18   77 1  
    81   19   78 1  
    82   20   79 1  
    83   23   80 1  
    84   23   81 1  
    85   25   82 1  
    86   26   83 1  
    87   27   84 1  
    88   48   85 1  
    89   49   86 1  
    90   52   87 1  
    91   52   88 1  
    92   53   89 1  
    93   53   90 1  
    94   54   91 1  
    95   54   92 1  
    96   55   93 1  
    97   55   94 1  
    98   56   95 1  
    99   56   96 1  
   100   56   97 1  
   101   57   98 1  
   102   58   99 1  
   103   61  100 1  
   104   61  101 1  
   105   63  102 1  
   106   64  103 1  
   107   65  104 1  
   108   66  105 1  
   109   67  106 1  
   110    5  107 1  
   111    5  108 1  
   112    5  109 1  
   113    6  110 1  
   114    6  111 1  
   115    6  112 1  
   116    7  113 1  
   117    7  114 1  
   118    7  115 1  
   119   29  116 1  
   120   30  117 1  
   121   31  118 1  
   122   31  119 1  
   123   32  120 1  
   124   33  121 1  
   125   33  122 1  
   126   34  123 1  
   127   34  124 1  
   128   35  125 1  
   129   35  126 1  
   130   36  127 1  
   131   36  128 1  
   132   37  129 1  
   133   37  130 1  
   134   38  131 1  
   135   39  132 1  
   136   40  133 1  
   137   40  134 1  
   138   42  135 1  
   139   42  136 1  
   140   43  137 1  
   141   44  138 1  
   142   44  139 1  
   143   44  140 1  
   144   45  141 1  
   145   45  142 1  
   146   45  143 1  
@<TRIPOS>SUBSTRUCTURE
     1 SUB1        1 GROUP

