### 
### Created by X-TOOL on Tue Oct 25 01:53:09 2005
### 

@<TRIPOS>MOLECULE
1a9m_ligand
   95    95     1     0     0
SMALL
GAST_HUCK


@<TRIPOS>ATOM
      1 C1         45.5100   23.0020   66.2580 C.3       1 SUB1        0.026
      2 C2         44.7100   22.2760   65.6330 C.2       1 SUB1        0.173
      3 C3         44.3590   19.9760   64.7470 C.3       1 SUB1        0.068
      4 C4         45.3320   19.2840   63.8240 C.3       1 SUB1       -0.025
      5 C5         45.9590   19.9850   62.6470 C.3       1 SUB1       -0.039
      6 C6         45.1630   21.1900   62.1830 C.3       1 SUB1       -0.050
      7 C7         45.7320   21.7660   60.9070 C.3       1 SUB1       -0.053
      8 C8         47.2140   22.1150   61.0830 C.3       1 SUB1       -0.053
      9 C9         48.0570   20.9850   61.7110 C.3       1 SUB1       -0.053
     10 C10        47.3850   20.4040   62.9280 C.3       1 SUB1       -0.050
     11 C11        43.6380   18.8840   65.6080 C.3       1 SUB1        0.080
     12 C12        42.7960   19.5050   66.7060 C.3       1 SUB1       -0.005
     13 C13        41.4600   18.8010   66.8660 C.3       1 SUB1        0.054
     14 C14        40.5360   19.6130   67.8360 C.3       1 SUB1       -0.027
     15 C15        39.9940   20.8780   67.1990 C.3       1 SUB1       -0.060
     16 C16        39.4250   18.7550   68.3890 C.3       1 SUB1       -0.060
     17 C17        40.8390   18.5800   65.4800 C.2       1 SUB1        0.182
     18 C18        39.3800   17.1150   64.2650 C.3       1 SUB1        0.133
     19 C19        39.9620   16.7890   62.8680 C.3       1 SUB1        0.004
     20 C20        40.0380   15.3260   62.4810 C.3       1 SUB1        0.041
     21 C21        38.7290   14.7960   61.9710 C.2       1 SUB1        0.174
     22 C22        38.3970   16.0710   64.7570 C.2       1 SUB1        0.204
     23 C23        36.0780   15.3880   64.7620 C.3       1 SUB1        0.131
     24 C24        35.1670   15.2450   63.5670 C.2       1 SUB1        0.199
     25 C25        35.3380   16.0590   65.9140 C.3       1 SUB1       -0.011
     26 C26        35.9920   15.8580   67.2590 C.3       1 SUB1       -0.030
     27 C27        35.9500   17.1280   68.0770 C.3       1 SUB1        0.051
     28 C28        34.3030   17.2140   69.9120 C.cat     1 SUB1        0.387
     29 N1         45.0620   20.9790   65.5660 N.am      1 SUB1       -0.282
     30 N2         40.4350   17.3410   65.2340 N.am      1 SUB1       -0.265
     31 N3         38.1560   15.4730   60.9940 N.am      1 SUB1       -0.301
     32 N4         37.1640   16.2210   64.3060 N.am      1 SUB1       -0.264
     33 N5         34.6060   14.0510   63.5010 N.am      1 SUB1       -0.299
     34 N6         35.5030   16.8760   69.4420 N.pl3     1 SUB1       -0.170
     35 N7         33.5530   18.1050   69.2620 N.pl3     1 SUB1       -0.183
     36 N8         33.8540   16.6660   71.0360 N.pl3     1 SUB1       -0.183
     37 O1         43.6700   22.7450   65.1250 O.2       1 SUB1       -0.397
     38 O2         44.5850   18.0080   66.1960 O.3       1 SUB1       -0.389
     39 O3         40.7610   19.4940   64.6310 O.2       1 SUB1       -0.397
     40 O4         38.2180   13.8060   62.4730 O.2       1 SUB1       -0.397
     41 O5         38.7320   15.1970   65.5570 O.2       1 SUB1       -0.394
     42 O6         34.9930   16.1380   62.7260 O.2       1 SUB1       -0.395
     43 H11        46.3518   22.3933   66.6198 H         1 SUB1        0.047
     44 H12        44.9955   23.4620   67.1145 H         1 SUB1        0.047
     45 H13        45.8879   23.7905   65.5906 H         1 SUB1        0.047
     46 H31        43.6025   20.4983   64.1430 H         1 SUB1        0.058
     47 H41        44.8000   18.4127   63.4145 H         1 SUB1        0.029
     48 H42        46.1644   18.9415   64.4563 H         1 SUB1        0.029
     49 H51        45.9802   19.2631   61.8173 H         1 SUB1        0.030
     50 H61        45.1900   21.9608   62.9673 H         1 SUB1        0.027
     51 H62        44.1214   20.8844   62.0049 H         1 SUB1        0.027
     52 H71        45.1755   22.6773   60.6427 H         1 SUB1        0.026
     53 H72        45.6289   21.0262   60.0995 H         1 SUB1        0.026
     54 H81        47.2857   23.0007   61.7314 H         1 SUB1        0.026
     55 H82        47.6335   22.3499   60.0936 H         1 SUB1        0.026
     56 H91        49.0368   21.3906   62.0035 H         1 SUB1        0.026
     57 H92        48.1976   20.1880   60.9660 H         1 SUB1        0.026
     58 H101       47.9541   19.5234   63.2606 H         1 SUB1        0.027
     59 H102       47.3812   21.1610   63.7260 H         1 SUB1        0.027
     60 H111       42.9791   18.3023   64.9466 H         1 SUB1        0.062
     61 H121       42.6134   20.5612   66.4590 H         1 SUB1        0.032
     62 H122       43.3473   19.4405   67.6557 H         1 SUB1        0.032
     63 H131       41.6363   17.8143   67.3191 H         1 SUB1        0.054
     64 H141       41.1597   19.9243   68.6869 H         1 SUB1        0.032
     65 H151       39.3544   21.4070   67.9209 H         1 SUB1        0.023
     66 H152       39.4032   20.6162   66.3088 H         1 SUB1        0.023
     67 H153       40.8311   21.5284   66.9053 H         1 SUB1        0.023
     68 H161       39.8527   17.8486   68.8422 H         1 SUB1        0.023
     69 H162       38.7416   18.4706   67.5753 H         1 SUB1        0.023
     70 H163       38.8707   19.3202   69.1527 H         1 SUB1        0.023
     71 H181       38.8215   18.0575   64.1659 H         1 SUB1        0.080
     72 H191       40.9832   17.1961   62.8302 H         1 SUB1        0.034
     73 H192       39.3363   17.2983   62.1203 H         1 SUB1        0.034
     74 H201       40.3341   14.7424   63.3651 H         1 SUB1        0.050
     75 H202       40.7967   15.2087   61.6932 H         1 SUB1        0.050
     76 H231       36.4519   14.4055   65.0857 H         1 SUB1        0.080
     77 H251       34.3194   15.6462   65.9588 H         1 SUB1        0.031
     78 H252       35.2874   17.1390   65.7112 H         1 SUB1        0.031
     79 H261       37.0406   15.5617   67.1084 H         1 SUB1        0.028
     80 H262       35.4606   15.0627   67.8021 H         1 SUB1        0.028
     81 H271       35.2568   17.8365   67.6000 H         1 SUB1        0.050
     82 H272       36.9586   17.5660   68.1074 H         1 SUB1        0.050
     83 H291       45.8486   20.6775   66.1049 H         1 SUB1        0.185
     84 H301       40.8542   16.5694   65.7125 H         1 SUB1        0.188
     85 H311       37.2829   15.1642   60.6168 H         1 SUB1        0.181
     86 H312       38.5949   16.2949   60.6308 H         1 SUB1        0.181
     87 H321       36.9782   16.9329   63.6287 H         1 SUB1        0.188
     88 H331       33.9800   13.8334   62.7521 H         1 SUB1        0.182
     89 H332       34.8073   13.3647   64.1999 H         1 SUB1        0.182
     90 H341       36.1572   16.4064   70.0842 H         1 SUB1        0.198
     91 H351       32.6259   18.3633   69.6290 H         1 SUB1        0.194
     92 H352       33.9009   18.5348   68.3930 H         1 SUB1        0.194
     93 H361       34.4313   15.9777   71.5398 H         1 SUB1        0.194
     94 H362       32.9286   16.9295   71.4036 H         1 SUB1        0.194
     95 H381       44.1307   17.3535   66.7135 H         1 SUB1        0.210
@<TRIPOS>BOND
     1    1    2 1  
     2    2   37 2  
     3    2   29 am 
     4   29    3 1  
     5    3   11 1  
     6    3    4 1  
     7    4    5 1  
     8    5   10 1  
     9    5    6 1  
    10    6    7 1  
    11    7    8 1  
    12    8    9 1  
    13    9   10 1  
    14   11   38 1  
    15   11   12 1  
    16   12   13 1  
    17   13   17 1  
    18   13   14 1  
    19   14   16 1  
    20   14   15 1  
    21   17   39 2  
    22   17   30 am 
    23   30   18 1  
    24   18   22 1  
    25   18   19 1  
    26   19   20 1  
    27   20   21 1  
    28   21   40 2  
    29   21   31 am 
    30   22   41 2  
    31   22   32 am 
    32   32   23 1  
    33   23   25 1  
    34   23   24 1  
    35   24   42 2  
    36   24   33 am 
    37   25   26 1  
    38   26   27 1  
    39   27   34 1  
    40   34   28 1  
    41   28   35 1  
    42   28   36 1  
    43    1   43 1  
    44    1   44 1  
    45    1   45 1  
    46    3   46 1  
    47    4   47 1  
    48    4   48 1  
    49    5   49 1  
    50    6   50 1  
    51    6   51 1  
    52    7   52 1  
    53    7   53 1  
    54    8   54 1  
    55    8   55 1  
    56    9   56 1  
    57    9   57 1  
    58   10   58 1  
    59   10   59 1  
    60   11   60 1  
    61   12   61 1  
    62   12   62 1  
    63   13   63 1  
    64   14   64 1  
    65   15   65 1  
    66   15   66 1  
    67   15   67 1  
    68   16   68 1  
    69   16   69 1  
    70   16   70 1  
    71   18   71 1  
    72   19   72 1  
    73   19   73 1  
    74   20   74 1  
    75   20   75 1  
    76   23   76 1  
    77   25   77 1  
    78   25   78 1  
    79   26   79 1  
    80   26   80 1  
    81   27   81 1  
    82   27   82 1  
    83   29   83 1  
    84   30   84 1  
    85   31   85 1  
    86   31   86 1  
    87   32   87 1  
    88   33   88 1  
    89   33   89 1  
    90   34   90 1  
    91   35   91 1  
    92   35   92 1  
    93   36   93 1  
    94   36   94 1  
    95   38   95 1  
@<TRIPOS>SUBSTRUCTURE
     1 SUB1        1 GROUP

