2avq_ligand
  -I-interpret- 

123122  0  0  0  0  0  0  0  0999 V2000
   23.5580   24.5790   19.7610 C   0  0  0  0  0
   23.2670   25.0870   20.8620 O   0  0  0  0  0
   24.1610   23.2070   19.6680 C   0  0  0  0  0
   23.3920   25.2520   18.6220 N   0  0  0  0  0
   22.8170   26.5620   18.6360 C   0  0  0  0  0
   21.4400   26.7120   17.9630 C   0  0  0  0  0
   20.8100   27.7580   18.0500 O   0  0  0  0  0
   23.7610   27.5430   17.9290 C   0  0  0  0  0
   23.9560   27.0880   16.5660 O   0  0  0  0  0
   25.1160   27.6310   18.6560 C   0  0  0  0  0
   20.9640   25.6690   17.3200 N   0  0  0  0  0
   19.6920   25.6970   16.6240 C   0  0  0  0  0
   18.8220   24.6430   17.2440 C   0  0  0  0  0
   18.7750   23.4840   16.7760 O   0  0  0  0  0
   19.8410   25.5230   15.0930 C   0  0  0  0  0
   20.9050   26.4130   14.4720 C   0  0  0  0  0
   18.5060   25.6550   14.3690 C   0  0  0  0  0
   20.6910   27.9020   14.6000 C   0  0  0  0  0
   18.1060   24.9680   18.2900 N   0  0  0  0  0
   17.3510   23.9520   19.0390 C   0  0  0  0  0
   15.8460   23.9720   18.7540 C   0  0  0  0  0
   17.6470   24.1130   20.5130 C   0  0  0  0  0
   19.0980   24.1520   20.9060 C   0  0  0  0  0
   19.8940   22.9600   20.5290 C   0  0  0  0  0
   19.3270   21.6460   21.0710 C   0  0  0  0  0
   15.4870   23.8340   17.4440 N   0  3  0  0  0
   14.2850   23.1190   16.9940 C   0  0  0  0  0
   14.2990   21.6830   17.4460 C   0  0  0  0  0
   15.3140   20.9660   17.3610 O   0  0  0  0  0
   14.0900   23.1570   15.4890 C   0  0  0  0  0
   12.9590   22.4730   14.7820 C   0  0  0  0  0
   13.2960   21.0570   14.3400 C   0  0  0  0  0
   14.3160   21.0710   13.1950 C   0  0  0  0  0
   13.1710   21.1970   17.9050 N   0  0  0  0  0
   13.0710   19.7800   18.3030 C   0  0  0  0  0
   11.6490   19.3230   17.9850 C   0  0  0  0  0
   10.6390   19.9610   18.3190 O   0  0  0  0  0
   13.4760   19.5890   19.7410 C   0  0  0  0  0
   13.2950   18.2280   20.3160 C   0  0  0  0  0
   11.8920   17.9480   20.8690 C   0  0  0  0  0
   11.2640   18.8560   21.3440 O   0  0  0  0  0
   11.4170   16.7280   20.7700 N   0  0  0  0  0
   11.5760   18.1240   17.4730 N   0  0  0  0  0
   10.3000   17.5320   17.1300 C   0  0  0  0  0
   10.2270   16.1610   17.7550 C   0  0  0  0  0
   11.1820   15.4110   17.7590 O   0  0  0  0  0
   10.1990   17.3930   15.6200 C   0  0  0  0  0
    9.9380   18.7310   14.9330 C   0  0  0  0  0
   10.4720   18.7770   13.5090 C   0  0  0  0  0
    9.6990   17.9290   12.6000 N   0  0  0  0  0
    8.5130   18.2320   12.0840 C   0  3  0  0  0
    7.9660   19.3970   12.4150 N   0  0  0  0  0
    7.8740   17.4050   11.2580 N   0  0  0  0  0
    9.4690   15.8580   18.1430 N   0  0  0  0  0
   25.1068   23.1897   20.2095 H   0  0  0  0  0
   23.4767   22.4803   20.1060 H   0  0  0  0  0
   24.3356   22.9585   18.6212 H   0  0  0  0  0
   23.6760   24.8313   17.7373 H   0  0  0  0  0
   22.6732   26.7708   19.6961 H   0  0  0  0  0
   23.3178   28.5388   17.9368 H   0  0  0  0  0
   24.5456   27.6925   16.1093 H   0  0  0  0  0
   25.5839   26.6466   18.6701 H   0  0  0  0  0
   25.7629   28.3347   18.1322 H   0  0  0  0  0
   24.9567   27.9737   19.6784 H   0  0  0  0  0
   21.5099   24.8074   17.3102 H   0  0  0  0  0
   19.2293   26.6774   16.7368 H   0  0  0  0  0
   20.1951   24.5013   14.9557 H   0  0  0  0  0
   20.8961   26.1961   13.4038 H   0  0  0  0  0
   21.8315   26.1932   15.0024 H   0  0  0  0  0
   17.8195   24.8907   14.7332 H   0  0  0  0  0
   18.0866   26.6428   14.5601 H   0  0  0  0  0
   18.6607   25.5256   13.2978 H   0  0  0  0  0
   19.7523   28.1756   14.1182 H   0  0  0  0  0
   20.6517   28.1728   15.6551 H   0  0  0  0  0
   21.5150   28.4289   14.1188 H   0  0  0  0  0
   18.0709   25.9420   18.5909 H   0  0  0  0  0
   17.6822   22.9703   18.7003 H   0  0  0  0  0
   15.4860   24.9511   19.0701 H   0  0  0  0  0
   15.4217   23.1173   19.2809 H   0  0  0  0  0
   17.2252   23.2355   21.0030 H   0  0  0  0  0
   17.2305   25.0783   20.8007 H   0  0  0  0  0
   19.1232   24.2103   21.9941 H   0  0  0  0  0
   19.5392   24.9986   20.3800 H   0  0  0  0  0
   20.8900   23.0853   20.9537 H   0  0  0  0  0
   19.8872   22.8940   19.4410 H   0  0  0  0  0
   19.2972   21.6863   22.1598 H   0  0  0  0  0
   18.3186   21.4997   20.6838 H   0  0  0  0  0
   19.9627   20.8193   20.7541 H   0  0  0  0  0
   16.2432   23.2662   17.0617 H   0  0  0  0  0
   15.2970   24.7951   17.1600 H   0  0  0  0  0
   13.4498   23.6473   17.4539 H   0  0  0  0  0
   14.9664   22.6267   15.1164 H   0  0  0  0  0
   13.8960   24.2119   15.2951 H   0  0  0  0  0
   12.7306   23.0523   13.8874 H   0  0  0  0  0
   12.1235   22.4109   15.4792 H   0  0  0  0  0
   12.3843   20.5715   13.9921 H   0  0  0  0  0
   13.7242   20.5180   15.1851 H   0  0  0  0  0
   13.9004   21.6147   12.3466 H   0  0  0  0  0
   15.2298   21.5616   13.5302 H   0  0  0  0  0
   14.5402   20.0467   12.8973 H   0  0  0  0  0
   12.3555   21.8040   17.9876 H   0  0  0  0  0
   13.7672   19.1541   17.7447 H   0  0  0  0  0
   12.8308   20.2472   20.3229 H   0  0  0  0  0
   14.5468   19.7891   19.7788 H   0  0  0  0  0
   13.9889   18.1417   21.1521 H   0  0  0  0  0
   13.4656   17.5166   19.5079 H   0  0  0  0  0
   10.4764   16.5182   21.1042 H   0  0  0  0  0
   11.9886   15.9900   20.3589 H   0  0  0  0  0
   12.4331   17.5951   17.3118 H   0  0  0  0  0
    9.4864   18.1598   17.4934 H   0  0  0  0  0
    9.3644   16.7286   15.3960 H   0  0  0  0  0
   11.1475   17.0023   15.2515 H   0  0  0  0  0
   10.4481   19.5054   15.5059 H   0  0  0  0  0
    8.8590   18.8790   14.8897 H   0  0  0  0  0
   11.4994   18.4131   13.5205 H   0  0  0  0  0
   10.4027   19.8053   13.1542 H   0  0  0  0  0
   10.1052   17.0299   12.3411 H   0  0  0  0  0
    8.4560   20.0289   13.0483 H   0  0  0  0  0
    7.0562   19.6593   12.0357 H   0  0  0  0  0
    8.2946   16.5107   11.0055 H   0  0  0  0  0
    6.9641   17.6661   10.8780 H   0  0  0  0  0
    9.4453   14.9260   18.5569 H   0  0  0  0  0
    8.6373   16.4480   18.1670 H   0  0  0  0  0
  1  2  2  0  0  0
  1  3  1  0  0  0
  1  4  1  0  0  0
  4  5  1  0  0  0
  5  6  1  0  0  0
  5  8  1  0  0  0
  6  7  2  0  0  0
  6 11  1  0  0  0
  8  9  1  0  0  0
  8 10  1  0  0  0
 11 12  1  0  0  0
 12 13  1  0  0  0
 12 15  1  0  0  0
 13 14  2  0  0  0
 13 19  1  0  0  0
 15 16  1  0  0  0
 15 17  1  0  0  0
 16 18  1  0  0  0
 19 20  1  0  0  0
 20 21  1  0  0  0
 20 22  1  0  0  0
 21 26  1  0  0  0
 22 23  1  0  0  0
 23 24  1  0  0  0
 24 25  1  0  0  0
 26 27  1  0  0  0
 27 28  1  0  0  0
 27 30  1  0  0  0
 28 29  2  0  0  0
 28 34  1  0  0  0
 30 31  1  0  0  0
 31 32  1  0  0  0
 32 33  1  0  0  0
 34 35  1  0  0  0
 35 36  1  0  0  0
 35 38  1  0  0  0
 36 37  2  0  0  0
 36 43  1  0  0  0
 38 39  1  0  0  0
 39 40  1  0  0  0
 40 41  2  0  0  0
 40 42  1  0  0  0
 43 44  1  0  0  0
 44 45  1  0  0  0
 44 47  1  0  0  0
 45 46  2  0  0  0
 45 54  1  0  0  0
 47 48  1  0  0  0
 48 49  1  0  0  0
 49 50  1  0  0  0
 50 51  1  0  0  0
 51 52  1  0  0  0
 51 53  1  0  0  0
  3 55  1  0  0  0
  3 56  1  0  0  0
  3 57  1  0  0  0
  4 58  1  0  0  0
  5 59  1  0  0  0
  8 60  1  0  0  0
  9 61  1  0  0  0
 10 62  1  0  0  0
 10 63  1  0  0  0
 10 64  1  0  0  0
 11 65  1  0  0  0
 12 66  1  0  0  0
 15 67  1  0  0  0
 16 68  1  0  0  0
 16 69  1  0  0  0
 17 70  1  0  0  0
 17 71  1  0  0  0
 17 72  1  0  0  0
 18 73  1  0  0  0
 18 74  1  0  0  0
 18 75  1  0  0  0
 19 76  1  0  0  0
 20 77  1  0  0  0
 21 78  1  0  0  0
 21 79  1  0  0  0
 22 80  1  0  0  0
 22 81  1  0  0  0
 23 82  1  0  0  0
 23 83  1  0  0  0
 24 84  1  0  0  0
 24 85  1  0  0  0
 25 86  1  0  0  0
 25 87  1  0  0  0
 25 88  1  0  0  0
 26 89  1  0  0  0
 26 90  1  0  0  0
 27 91  1  0  0  0
 30 92  1  0  0  0
 30 93  1  0  0  0
 31 94  1  0  0  0
 31 95  1  0  0  0
 32 96  1  0  0  0
 32 97  1  0  0  0
 33 98  1  0  0  0
 33 99  1  0  0  0
 33100  1  0  0  0
 34101  1  0  0  0
 35102  1  0  0  0
 38103  1  0  0  0
 38104  1  0  0  0
 39105  1  0  0  0
 39106  1  0  0  0
 42107  1  0  0  0
 42108  1  0  0  0
 43109  1  0  0  0
 44110  1  0  0  0
 47111  1  0  0  0
 47112  1  0  0  0
 48113  1  0  0  0
 48114  1  0  0  0
 49115  1  0  0  0
 49116  1  0  0  0
 50117  1  0  0  0
 52118  1  0  0  0
 52119  1  0  0  0
 53120  1  0  0  0
 53121  1  0  0  0
 54122  1  0  0  0
 54123  1  0  0  0
M  END
$$$$
