### 
### Created by X-TOOL on Sun Jun  3 11:52:22 2007
### 

@<TRIPOS>MOLECULE
2avq_ligand
  123   122     1     0     0
SMALL
GAST_HUCK


@<TRIPOS>ATOM
      1 C          23.5580   24.5790   19.7610 C.2       1 SUB1        0.175
      2 O          23.2670   25.0870   20.8620 O.2       1 SUB1       -0.397
      3 CH3        24.1610   23.2070   19.6680 C.3       1 SUB1        0.026
      4 N          23.3920   25.2520   18.6220 N.am      1 SUB1       -0.264
      5 CA         22.8170   26.5620   18.6360 C.3       1 SUB1        0.156
      6 C          21.4400   26.7120   17.9630 C.2       1 SUB1        0.206
      7 O          20.8100   27.7580   18.0500 O.2       1 SUB1       -0.394
      8 CB         23.7610   27.5430   17.9290 C.3       1 SUB1        0.092
      9 OG1        23.9560   27.0880   16.5660 O.3       1 SUB1       -0.387
     10 CG2        25.1160   27.6310   18.6560 C.3       1 SUB1       -0.035
     11 N          20.9640   25.6690   17.3200 N.am      1 SUB1       -0.263
     12 CA         19.6920   25.6970   16.6240 C.3       1 SUB1        0.133
     13 C          18.8220   24.6430   17.2440 C.2       1 SUB1        0.202
     14 O          18.7750   23.4840   16.7760 O.2       1 SUB1       -0.394
     15 CB         19.8410   25.5230   15.0930 C.3       1 SUB1       -0.004
     16 CG1        20.9050   26.4130   14.4720 C.3       1 SUB1       -0.049
     17 CG2        18.5060   25.6550   14.3690 C.3       1 SUB1       -0.058
     18 CD1        20.6910   27.9020   14.6000 C.3       1 SUB1       -0.065
     19 N          18.1060   24.9680   18.2900 N.am      1 SUB1       -0.277
     20 CA         17.3510   23.9520   19.0390 C.3       1 SUB1        0.082
     21 C          15.8460   23.9720   18.7540 C.3       1 SUB1       -0.008
     22 CB         17.6470   24.1130   20.5130 C.3       1 SUB1       -0.025
     23 CG         19.0980   24.1520   20.9060 C.3       1 SUB1       -0.051
     24 CD         19.8940   22.9600   20.5290 C.3       1 SUB1       -0.056
     25 CE         19.3270   21.6460   21.0710 C.3       1 SUB1       -0.065
     26 N          15.4870   23.8340   17.4440 N.4       1 SUB1        0.248
     27 CA         14.2850   23.1190   16.9940 C.3       1 SUB1        0.067
     28 C          14.2990   21.6830   17.4460 C.2       1 SUB1        0.227
     29 O          15.3140   20.9660   17.3610 O.2       1 SUB1       -0.391
     30 CB         14.0900   23.1570   15.4890 C.3       1 SUB1        0.008
     31 CG         12.9590   22.4730   14.7820 C.3       1 SUB1       -0.046
     32 CD         13.2960   21.0570   14.3400 C.3       1 SUB1       -0.056
     33 CE         14.3160   21.0710   13.1950 C.3       1 SUB1       -0.065
     34 N          13.1710   21.1970   17.9050 N.am      1 SUB1       -0.261
     35 CA         13.0710   19.7800   18.3030 C.3       1 SUB1        0.133
     36 C          11.6490   19.3230   17.9850 C.2       1 SUB1        0.204
     37 O          10.6390   19.9610   18.3190 O.2       1 SUB1       -0.394
     38 CB         13.4760   19.5890   19.7410 C.3       1 SUB1        0.004
     39 CG         13.2950   18.2280   20.3160 C.3       1 SUB1        0.041
     40 CD         11.8920   17.9480   20.8690 C.2       1 SUB1        0.174
     41 OE1        11.2640   18.8560   21.3440 O.2       1 SUB1       -0.397
     42 NE2        11.4170   16.7280   20.7700 N.am      1 SUB1       -0.301
     43 N          11.5760   18.1240   17.4730 N.am      1 SUB1       -0.264
     44 CA         10.3000   17.5320   17.1300 C.3       1 SUB1        0.131
     45 C          10.2270   16.1610   17.7550 C.2       1 SUB1        0.199
     46 O          11.1820   15.4110   17.7590 O.2       1 SUB1       -0.395
     47 CB         10.1990   17.3930   15.6200 C.3       1 SUB1       -0.009
     48 CG          9.9380   18.7310   14.9330 C.3       1 SUB1       -0.016
     49 CD         10.4720   18.7770   13.5090 C.3       1 SUB1        0.063
     50 NE          9.6990   17.9290   12.6000 N.pl3     1 SUB1       -0.272
     51 CZ          8.5130   18.2320   12.0840 C.cat     1 SUB1        0.288
     52 NH1         7.9660   19.3970   12.4150 N.pl3     1 SUB1       -0.285
     53 NH2         7.8740   17.4050   11.2580 N.pl3     1 SUB1       -0.285
     54 N           9.4690   15.8580   18.1430 N.am      1 SUB1       -0.299
     55 H          25.1068   23.1897   20.2095 H         1 SUB1        0.047
     56 H          23.4767   22.4803   20.1060 H         1 SUB1        0.047
     57 H          24.3356   22.9585   18.6212 H         1 SUB1        0.047
     58 H          23.6760   24.8313   17.7373 H         1 SUB1        0.188
     59 H          22.6732   26.7708   19.6961 H         1 SUB1        0.083
     60 H          23.3178   28.5388   17.9368 H         1 SUB1        0.064
     61 H          24.5456   27.6925   16.1093 H         1 SUB1        0.210
     62 H          25.5839   26.6466   18.6701 H         1 SUB1        0.026
     63 H          25.7629   28.3347   18.1322 H         1 SUB1        0.026
     64 H          24.9567   27.9737   19.6784 H         1 SUB1        0.026
     65 H          21.5099   24.8074   17.3102 H         1 SUB1        0.188
     66 H          19.2293   26.6774   16.7368 H         1 SUB1        0.080
     67 H          20.1951   24.5013   14.9557 H         1 SUB1        0.034
     68 H          20.8961   26.1961   13.4038 H         1 SUB1        0.027
     69 H          21.8315   26.1932   15.0024 H         1 SUB1        0.027
     70 H          17.8195   24.8907   14.7332 H         1 SUB1        0.023
     71 H          18.0866   26.6428   14.5601 H         1 SUB1        0.023
     72 H          18.6607   25.5256   13.2978 H         1 SUB1        0.023
     73 H          19.7523   28.1756   14.1182 H         1 SUB1        0.023
     74 H          20.6517   28.1728   15.6551 H         1 SUB1        0.023
     75 H          21.5150   28.4289   14.1188 H         1 SUB1        0.023
     76 H          18.0709   25.9420   18.5909 H         1 SUB1        0.186
     77 H          17.6822   22.9703   18.7003 H         1 SUB1        0.061
     78 H          15.4860   24.9511   19.0701 H         1 SUB1        0.084
     79 H          15.4217   23.1173   19.2809 H         1 SUB1        0.084
     80 H          17.2252   23.2355   21.0030 H         1 SUB1        0.029
     81 H          17.2305   25.0783   20.8007 H         1 SUB1        0.029
     82 H          19.1232   24.2103   21.9941 H         1 SUB1        0.027
     83 H          19.5392   24.9986   20.3800 H         1 SUB1        0.027
     84 H          20.8900   23.0853   20.9537 H         1 SUB1        0.026
     85 H          19.8872   22.8940   19.4410 H         1 SUB1        0.026
     86 H          19.2972   21.6863   22.1598 H         1 SUB1        0.023
     87 H          18.3186   21.4997   20.6838 H         1 SUB1        0.023
     88 H          19.9627   20.8193   20.7541 H         1 SUB1        0.023
     89 H          16.2432   23.2662   17.0617 H         1 SUB1        0.204
     90 H          15.2970   24.7951   17.1600 H         1 SUB1        0.204
     91 H          13.4498   23.6473   17.4539 H         1 SUB1        0.110
     92 H          14.9664   22.6267   15.1164 H         1 SUB1        0.035
     93 H          13.8960   24.2119   15.2951 H         1 SUB1        0.035
     94 H          12.7306   23.0523   13.8874 H         1 SUB1        0.027
     95 H          12.1235   22.4109   15.4792 H         1 SUB1        0.027
     96 H          12.3843   20.5715   13.9921 H         1 SUB1        0.026
     97 H          13.7242   20.5180   15.1851 H         1 SUB1        0.026
     98 H          13.9004   21.6147   12.3466 H         1 SUB1        0.023
     99 H          15.2298   21.5616   13.5302 H         1 SUB1        0.023
    100 H          14.5402   20.0467   12.8973 H         1 SUB1        0.023
    101 H          12.3555   21.8040   17.9876 H         1 SUB1        0.189
    102 H          13.7672   19.1541   17.7447 H         1 SUB1        0.080
    103 H          12.8308   20.2472   20.3229 H         1 SUB1        0.034
    104 H          14.5468   19.7891   19.7788 H         1 SUB1        0.034
    105 H          13.9889   18.1417   21.1521 H         1 SUB1        0.050
    106 H          13.4656   17.5166   19.5079 H         1 SUB1        0.050
    107 H          10.4764   16.5182   21.1042 H         1 SUB1        0.181
    108 H          11.9886   15.9900   20.3589 H         1 SUB1        0.181
    109 H          12.4331   17.5951   17.3118 H         1 SUB1        0.188
    110 H           9.4864   18.1598   17.4934 H         1 SUB1        0.080
    111 H           9.3644   16.7286   15.3960 H         1 SUB1        0.031
    112 H          11.1475   17.0023   15.2515 H         1 SUB1        0.031
    113 H          10.4481   19.5054   15.5059 H         1 SUB1        0.030
    114 H           8.8590   18.8790   14.8897 H         1 SUB1        0.030
    115 H          11.4994   18.4131   13.5205 H         1 SUB1        0.069
    116 H          10.4027   19.8053   13.1542 H         1 SUB1        0.069
    117 H          10.1052   17.0299   12.3411 H         1 SUB1        0.264
    118 H           8.4560   20.0289   13.0483 H         1 SUB1        0.262
    119 H           7.0562   19.6593   12.0357 H         1 SUB1        0.262
    120 H           8.2946   16.5107   11.0055 H         1 SUB1        0.262
    121 H           6.9641   17.6661   10.8780 H         1 SUB1        0.262
    122 H           9.4453   14.9260   18.5569 H         1 SUB1        0.182
    123 H           8.6373   16.4480   18.1670 H         1 SUB1        0.182
@<TRIPOS>BOND
     1    1    2 2  
     2    1    3 1  
     3    1    4 am 
     4    4    5 1  
     5    5    6 1  
     6    5    8 1  
     7    6    7 2  
     8    6   11 am 
     9    8    9 1  
    10    8   10 1  
    11   11   12 1  
    12   12   13 1  
    13   12   15 1  
    14   13   14 2  
    15   13   19 am 
    16   15   16 1  
    17   15   17 1  
    18   16   18 1  
    19   19   20 1  
    20   20   21 1  
    21   20   22 1  
    22   21   26 1  
    23   22   23 1  
    24   23   24 1  
    25   24   25 1  
    26   26   27 1  
    27   27   28 1  
    28   27   30 1  
    29   28   29 2  
    30   28   34 am 
    31   30   31 1  
    32   31   32 1  
    33   32   33 1  
    34   34   35 1  
    35   35   36 1  
    36   35   38 1  
    37   36   37 2  
    38   36   43 am 
    39   38   39 1  
    40   39   40 1  
    41   40   41 2  
    42   40   42 am 
    43   43   44 1  
    44   44   45 1  
    45   44   47 1  
    46   45   46 2  
    47   45   54 am 
    48   47   48 1  
    49   48   49 1  
    50   49   50 1  
    51   50   51 1  
    52   51   52 1  
    53   51   53 1  
    54    3   55 1  
    55    3   56 1  
    56    3   57 1  
    57    4   58 1  
    58    5   59 1  
    59    8   60 1  
    60    9   61 1  
    61   10   62 1  
    62   10   63 1  
    63   10   64 1  
    64   11   65 1  
    65   12   66 1  
    66   15   67 1  
    67   16   68 1  
    68   16   69 1  
    69   17   70 1  
    70   17   71 1  
    71   17   72 1  
    72   18   73 1  
    73   18   74 1  
    74   18   75 1  
    75   19   76 1  
    76   20   77 1  
    77   21   78 1  
    78   21   79 1  
    79   22   80 1  
    80   22   81 1  
    81   23   82 1  
    82   23   83 1  
    83   24   84 1  
    84   24   85 1  
    85   25   86 1  
    86   25   87 1  
    87   25   88 1  
    88   26   89 1  
    89   26   90 1  
    90   27   91 1  
    91   30   92 1  
    92   30   93 1  
    93   31   94 1  
    94   31   95 1  
    95   32   96 1  
    96   32   97 1  
    97   33   98 1  
    98   33   99 1  
    99   33  100 1  
   100   34  101 1  
   101   35  102 1  
   102   38  103 1  
   103   38  104 1  
   104   39  105 1  
   105   39  106 1  
   106   42  107 1  
   107   42  108 1  
   108   43  109 1  
   109   44  110 1  
   110   47  111 1  
   111   47  112 1  
   112   48  113 1  
   113   48  114 1  
   114   49  115 1  
   115   49  116 1  
   116   50  117 1  
   117   52  118 1  
   118   52  119 1  
   119   53  120 1  
   120   53  121 1  
   121   54  122 1  
   122   54  123 1  
@<TRIPOS>SUBSTRUCTURE
     1 SUB1        1 GROUP

