### 
### Created by X-TOOL on Sun Jun  3 11:23:34 2007
### 

@<TRIPOS>MOLECULE
2fgu_ligand
   99   103     1     0     0
SMALL
GAST_HUCK


@<TRIPOS>ATOM
      1 O          18.9080   -5.7980   11.5630 O.2       1 SUB1       -0.376
      2 C          19.1640   -6.3060   12.6430 C.2       1 SUB1        0.229
      3 N1         20.3730   -8.1250   13.9490 N.ar      1 SUB1       -0.274
      4 C2         20.0690   -7.5100   12.7740 C.ar      1 SUB1        0.122
      5 C3         20.6240   -7.9900   11.5970 C.ar      1 SUB1       -0.014
      6 C4         21.4760   -9.0960   11.6080 C.ar      1 SUB1       -0.031
      7 C4A        21.7700   -9.7180   12.8060 C.ar      1 SUB1        0.010
      8 C5         22.6080  -10.8350   12.8140 C.ar      1 SUB1       -0.044
      9 C6         22.9060  -11.4610   14.0210 C.ar      1 SUB1       -0.055
     10 C7         22.3470  -10.9580   15.1950 C.ar      1 SUB1       -0.054
     11 C8         21.5010   -9.8480   15.1770 C.ar      1 SUB1       -0.037
     12 C8A        21.1920   -9.2140   13.9740 C.ar      1 SUB1        0.053
     13 N          18.5290   -5.6230   13.6000 N.am      1 SUB1       -0.260
     14 CA         17.7070   -4.6130   14.2090 C.3       1 SUB1        0.147
     15 C          18.6150   -3.7330   15.0340 C.2       1 SUB1        0.205
     16 O          18.5350   -3.7190   16.2410 O.2       1 SUB1       -0.394
     17 CB         16.4340   -5.1880   14.7970 C.3       1 SUB1        0.077
     18 CG         15.8110   -5.8640   13.6000 C.2       1 SUB1        0.178
     19 OD1        15.3900   -5.1980   12.6580 O.2       1 SUB1       -0.397
     20 ND2        15.7830   -7.1930   13.6280 N.am      1 SUB1       -0.301
     21 C          19.8720   -0.5220   14.6250 C.3       1 SUB1        0.093
     22 O          20.1260   -0.0890   13.3910 O.3       1 SUB1       -0.388
     23 CA         20.3290   -1.9250   14.9090 C.3       1 SUB1        0.079
     24 N          19.4580   -2.9430   14.3440 N.am      1 SUB1       -0.277
     25 CB         21.7890   -2.0460   14.4370 C.3       1 SUB1        0.006
     26 CG         22.2840   -3.4580   14.6330 C.ar      1 SUB1       -0.041
     27 CD1        22.6440   -3.9130   15.9000 C.ar      1 SUB1       -0.060
     28 CD2        22.3680   -4.3210   13.5470 C.ar      1 SUB1       -0.060
     29 CE1        23.0740   -5.2310   16.0740 C.ar      1 SUB1       -0.069
     30 CE2        22.7900   -5.6400   13.7200 C.ar      1 SUB1       -0.069
     31 CZ         23.1510   -6.0970   14.9860 C.ar      1 SUB1       -0.069
     32 N1         19.3940    0.4580   16.7920 N.3       1 SUB1       -0.280
     33 CM         20.1280    0.3900   15.5800 C.3       1 SUB1        0.030
     34 C2         20.1420    1.2230   17.8070 C.3       1 SUB1        0.101
     35 C          21.4190    0.5760   18.2560 C.2       1 SUB1        0.194
     36 O          21.4430   -0.6380   18.3530 O.2       1 SUB1       -0.395
     37 C3         19.3380    1.4600   19.0880 C.3       1 SUB1       -0.017
     38 C3A        17.9740    2.1090   18.8350 C.3       1 SUB1       -0.034
     39 C4         17.1370    2.1060   20.1120 C.3       1 SUB1       -0.050
     40 C5         16.6680    0.6980   20.4520 C.3       1 SUB1       -0.053
     41 C6         15.9750    0.0470   19.2650 C.3       1 SUB1       -0.053
     42 C7         16.9850   -0.0630   18.1320 C.3       1 SUB1       -0.049
     43 C7A        17.3070    1.3580   17.7030 C.3       1 SUB1       -0.025
     44 C8         18.2120    1.2710   16.4990 C.3       1 SUB1        0.005
     45 N          22.4240    1.4330   18.5120 N.am      1 SUB1       -0.280
     46 C          23.7890    1.0830   18.8650 C.3       1 SUB1        0.045
     47 C1         24.6260    2.3600   18.9800 C.3       1 SUB1       -0.040
     48 C2         23.8520    0.2840   20.1620 C.3       1 SUB1       -0.040
     49 C3         24.3390    0.2050   17.7400 C.3       1 SUB1       -0.040
     50 H          20.3923   -7.4980   10.6524 H         1 SUB1        0.073
     51 H          21.9064   -9.4663   10.6775 H         1 SUB1        0.077
     52 H          23.0259  -11.2141   11.8814 H         1 SUB1        0.066
     53 H          23.5647  -12.3290   14.0478 H         1 SUB1        0.065
     54 H          22.5750  -11.4409   16.1452 H         1 SUB1        0.066
     55 H          21.0789   -9.4741   16.1098 H         1 SUB1        0.065
     56 H          18.8006   -6.1613   14.4227 H         1 SUB1        0.188
     57 H          17.2461   -3.9227   13.5025 H         1 SUB1        0.083
     58 H          15.7898   -4.4346   15.2504 H         1 SUB1        0.055
     59 H          16.6125   -5.8667   15.6310 H         1 SUB1        0.055
     60 H          15.3971   -7.7117   12.8391 H         1 SUB1        0.181
     61 H          16.1474   -7.6938   14.4384 H         1 SUB1        0.181
     62 H          18.7884   -0.6317   14.6682 H         1 SUB1        0.063
     63 H          19.8032    0.8101   13.2958 H         1 SUB1        0.210
     64 H          20.2739   -2.1129   15.9813 H         1 SUB1        0.060
     65 H          19.4888   -3.0699   13.3324 H         1 SUB1        0.186
     66 H          22.4102   -1.3658   15.0197 H         1 SUB1        0.045
     67 H          21.8442   -1.7920   13.3784 H         1 SUB1        0.045
     68 H          22.5901   -3.2402   16.7559 H         1 SUB1        0.056
     69 H          22.1021   -3.9648   12.5518 H         1 SUB1        0.056
     70 H          23.3509   -5.5836   17.0675 H         1 SUB1        0.060
     71 H          22.8373   -6.3133   12.8641 H         1 SUB1        0.060
     72 H          23.4908   -7.1235   15.1236 H         1 SUB1        0.056
     73 H          19.8937    1.3361   15.0920 H         1 SUB1        0.045
     74 H          21.1338    0.1307   15.9106 H         1 SUB1        0.045
     75 H          20.3543    2.1546   17.2824 H         1 SUB1        0.071
     76 H          19.9139    2.1379   19.7180 H         1 SUB1        0.031
     77 H          19.1604    0.4889   19.5502 H         1 SUB1        0.031
     78 H          18.0855    3.1545   18.5475 H         1 SUB1        0.031
     79 H          16.2629    2.7390   19.9592 H         1 SUB1        0.027
     80 H          17.7494    2.4789   20.9330 H         1 SUB1        0.027
     81 H          15.9598    0.7574   21.2784 H         1 SUB1        0.026
     82 H          17.5371    0.0971   20.7197 H         1 SUB1        0.026
     83 H          15.1217    0.6483   18.9513 H         1 SUB1        0.026
     84 H          15.6082   -0.9421   19.5395 H         1 SUB1        0.026
     85 H          16.5784   -0.6392   17.3009 H         1 SUB1        0.027
     86 H          17.8839   -0.5853   18.4594 H         1 SUB1        0.027
     87 H          16.3982    1.9031   17.4481 H         1 SUB1        0.032
     88 H          17.6621    0.8078   15.6797 H         1 SUB1        0.043
     89 H          18.5358    2.2765   16.2303 H         1 SUB1        0.043
     90 H          22.2058    2.4276   18.4523 H         1 SUB1        0.186
     91 H          24.6189    2.8848   18.0247 H         1 SUB1        0.025
     92 H          24.2023    3.0023   19.7520 H         1 SUB1        0.025
     93 H          25.6505    2.0987   19.2449 H         1 SUB1        0.025
     94 H          23.4296    0.8768   20.9733 H         1 SUB1        0.025
     95 H          23.2807   -0.6372   20.0478 H         1 SUB1        0.025
     96 H          24.8906    0.0432   20.3888 H         1 SUB1        0.025
     97 H          23.7255   -0.6912   17.6473 H         1 SUB1        0.025
     98 H          24.3163    0.7610   16.8027 H         1 SUB1        0.025
     99 H          25.3659   -0.0784   17.9710 H         1 SUB1        0.025
@<TRIPOS>BOND
     1    2    1 2  
     2    2    4 1  
     3   13    2 am 
     4    4    3 ar 
     5    3   12 ar 
     6    4    5 ar 
     7    5    6 ar 
     8    6    7 ar 
     9    7    8 ar 
    10   12    7 ar 
    11    8    9 ar 
    12   10    9 ar 
    13   11   10 ar 
    14   12   11 ar 
    15   14   13 1  
    16   15   14 1  
    17   14   17 1  
    18   15   16 2  
    19   24   15 am 
    20   17   18 1  
    21   18   19 2  
    22   18   20 am 
    23   21   22 1  
    24   23   21 1  
    25   21   33 1  
    26   23   24 1  
    27   23   25 1  
    28   25   26 1  
    29   26   27 ar 
    30   26   28 ar 
    31   27   29 ar 
    32   28   30 ar 
    33   29   31 ar 
    34   30   31 ar 
    35   33   32 1  
    36   32   34 1  
    37   32   44 1  
    38   34   35 1  
    39   34   37 1  
    40   35   36 2  
    41   35   45 am 
    42   37   38 1  
    43   38   39 1  
    44   38   43 1  
    45   39   40 1  
    46   40   41 1  
    47   41   42 1  
    48   42   43 1  
    49   43   44 1  
    50   45   46 1  
    51   46   47 1  
    52   46   48 1  
    53   46   49 1  
    54    5   50 1  
    55    6   51 1  
    56    8   52 1  
    57    9   53 1  
    58   10   54 1  
    59   11   55 1  
    60   13   56 1  
    61   14   57 1  
    62   17   58 1  
    63   17   59 1  
    64   20   60 1  
    65   20   61 1  
    66   21   62 1  
    67   22   63 1  
    68   23   64 1  
    69   24   65 1  
    70   25   66 1  
    71   25   67 1  
    72   27   68 1  
    73   28   69 1  
    74   29   70 1  
    75   30   71 1  
    76   31   72 1  
    77   33   73 1  
    78   33   74 1  
    79   34   75 1  
    80   37   76 1  
    81   37   77 1  
    82   38   78 1  
    83   39   79 1  
    84   39   80 1  
    85   40   81 1  
    86   40   82 1  
    87   41   83 1  
    88   41   84 1  
    89   42   85 1  
    90   42   86 1  
    91   43   87 1  
    92   44   88 1  
    93   44   89 1  
    94   45   90 1  
    95   47   91 1  
    96   47   92 1  
    97   47   93 1  
    98   48   94 1  
    99   48   95 1  
   100   48   96 1  
   101   49   97 1  
   102   49   98 1  
   103   49   99 1  
@<TRIPOS>SUBSTRUCTURE
     1 SUB1        1 GROUP

