2fgu_ligand
  -I-interpret- 

 99103  0  0  0  0  0  0  0  0999 V2000
   18.9080   -5.7980   11.5630 O   0  0  0  0  0
   19.1640   -6.3060   12.6430 C   0  0  0  0  0
   20.3730   -8.1250   13.9490 N   0  0  0  0  0
   20.0690   -7.5100   12.7740 C   0  0  0  0  0
   20.6240   -7.9900   11.5970 C   0  0  0  0  0
   21.4760   -9.0960   11.6080 C   0  0  0  0  0
   21.7700   -9.7180   12.8060 C   0  0  0  0  0
   22.6080  -10.8350   12.8140 C   0  0  0  0  0
   22.9060  -11.4610   14.0210 C   0  0  0  0  0
   22.3470  -10.9580   15.1950 C   0  0  0  0  0
   21.5010   -9.8480   15.1770 C   0  0  0  0  0
   21.1920   -9.2140   13.9740 C   0  0  0  0  0
   18.5290   -5.6230   13.6000 N   0  0  0  0  0
   17.7070   -4.6130   14.2090 C   0  0  0  0  0
   18.6150   -3.7330   15.0340 C   0  0  0  0  0
   18.5350   -3.7190   16.2410 O   0  0  0  0  0
   16.4340   -5.1880   14.7970 C   0  0  0  0  0
   15.8110   -5.8640   13.6000 C   0  0  0  0  0
   15.3900   -5.1980   12.6580 O   0  0  0  0  0
   15.7830   -7.1930   13.6280 N   0  0  0  0  0
   19.8720   -0.5220   14.6250 C   0  0  0  0  0
   20.1260   -0.0890   13.3910 O   0  0  0  0  0
   20.3290   -1.9250   14.9090 C   0  0  0  0  0
   19.4580   -2.9430   14.3440 N   0  0  0  0  0
   21.7890   -2.0460   14.4370 C   0  0  0  0  0
   22.2840   -3.4580   14.6330 C   0  0  0  0  0
   22.6440   -3.9130   15.9000 C   0  0  0  0  0
   22.3680   -4.3210   13.5470 C   0  0  0  0  0
   23.0740   -5.2310   16.0740 C   0  0  0  0  0
   22.7900   -5.6400   13.7200 C   0  0  0  0  0
   23.1510   -6.0970   14.9860 C   0  0  0  0  0
   19.3940    0.4580   16.7920 N   0  0  0  0  0
   20.1280    0.3900   15.5800 C   0  0  0  0  0
   20.1420    1.2230   17.8070 C   0  0  0  0  0
   21.4190    0.5760   18.2560 C   0  0  0  0  0
   21.4430   -0.6380   18.3530 O   0  0  0  0  0
   19.3380    1.4600   19.0880 C   0  0  0  0  0
   17.9740    2.1090   18.8350 C   0  0  0  0  0
   17.1370    2.1060   20.1120 C   0  0  0  0  0
   16.6680    0.6980   20.4520 C   0  0  0  0  0
   15.9750    0.0470   19.2650 C   0  0  0  0  0
   16.9850   -0.0630   18.1320 C   0  0  0  0  0
   17.3070    1.3580   17.7030 C   0  0  0  0  0
   18.2120    1.2710   16.4990 C   0  0  0  0  0
   22.4240    1.4330   18.5120 N   0  0  0  0  0
   23.7890    1.0830   18.8650 C   0  0  0  0  0
   24.6260    2.3600   18.9800 C   0  0  0  0  0
   23.8520    0.2840   20.1620 C   0  0  0  0  0
   24.3390    0.2050   17.7400 C   0  0  0  0  0
   20.3923   -7.4980   10.6524 H   0  0  0  0  0
   21.9064   -9.4663   10.6775 H   0  0  0  0  0
   23.0259  -11.2141   11.8814 H   0  0  0  0  0
   23.5647  -12.3290   14.0478 H   0  0  0  0  0
   22.5750  -11.4409   16.1452 H   0  0  0  0  0
   21.0789   -9.4741   16.1098 H   0  0  0  0  0
   18.8006   -6.1613   14.4227 H   0  0  0  0  0
   17.2461   -3.9227   13.5025 H   0  0  0  0  0
   15.7898   -4.4346   15.2504 H   0  0  0  0  0
   16.6125   -5.8667   15.6310 H   0  0  0  0  0
   15.3971   -7.7117   12.8391 H   0  0  0  0  0
   16.1474   -7.6938   14.4384 H   0  0  0  0  0
   18.7884   -0.6317   14.6682 H   0  0  0  0  0
   19.8032    0.8101   13.2958 H   0  0  0  0  0
   20.2739   -2.1129   15.9813 H   0  0  0  0  0
   19.4888   -3.0699   13.3324 H   0  0  0  0  0
   22.4102   -1.3658   15.0197 H   0  0  0  0  0
   21.8442   -1.7920   13.3784 H   0  0  0  0  0
   22.5901   -3.2402   16.7559 H   0  0  0  0  0
   22.1021   -3.9648   12.5518 H   0  0  0  0  0
   23.3509   -5.5836   17.0675 H   0  0  0  0  0
   22.8373   -6.3133   12.8641 H   0  0  0  0  0
   23.4908   -7.1235   15.1236 H   0  0  0  0  0
   19.8937    1.3361   15.0920 H   0  0  0  0  0
   21.1338    0.1307   15.9106 H   0  0  0  0  0
   20.3543    2.1546   17.2824 H   0  0  0  0  0
   19.9139    2.1379   19.7180 H   0  0  0  0  0
   19.1604    0.4889   19.5502 H   0  0  0  0  0
   18.0855    3.1545   18.5475 H   0  0  0  0  0
   16.2629    2.7390   19.9592 H   0  0  0  0  0
   17.7494    2.4789   20.9330 H   0  0  0  0  0
   15.9598    0.7574   21.2784 H   0  0  0  0  0
   17.5371    0.0971   20.7197 H   0  0  0  0  0
   15.1217    0.6483   18.9513 H   0  0  0  0  0
   15.6082   -0.9421   19.5395 H   0  0  0  0  0
   16.5784   -0.6392   17.3009 H   0  0  0  0  0
   17.8839   -0.5853   18.4594 H   0  0  0  0  0
   16.3982    1.9031   17.4481 H   0  0  0  0  0
   17.6621    0.8078   15.6797 H   0  0  0  0  0
   18.5358    2.2765   16.2303 H   0  0  0  0  0
   22.2058    2.4276   18.4523 H   0  0  0  0  0
   24.6189    2.8848   18.0247 H   0  0  0  0  0
   24.2023    3.0023   19.7520 H   0  0  0  0  0
   25.6505    2.0987   19.2449 H   0  0  0  0  0
   23.4296    0.8768   20.9733 H   0  0  0  0  0
   23.2807   -0.6372   20.0478 H   0  0  0  0  0
   24.8906    0.0432   20.3888 H   0  0  0  0  0
   23.7255   -0.6912   17.6473 H   0  0  0  0  0
   24.3163    0.7610   16.8027 H   0  0  0  0  0
   25.3659   -0.0784   17.9710 H   0  0  0  0  0
  2  1  2  0  0  0
  2  4  1  0  0  0
 13  2  1  0  0  0
  4  3  4  0  0  0
  3 12  4  0  0  0
  4  5  4  0  0  0
  5  6  4  0  0  0
  6  7  4  0  0  0
  7  8  4  0  0  0
 12  7  4  0  0  0
  8  9  4  0  0  0
 10  9  4  0  0  0
 11 10  4  0  0  0
 12 11  4  0  0  0
 14 13  1  0  0  0
 15 14  1  0  0  0
 14 17  1  0  0  0
 15 16  2  0  0  0
 24 15  1  0  0  0
 17 18  1  0  0  0
 18 19  2  0  0  0
 18 20  1  0  0  0
 21 22  1  0  0  0
 23 21  1  0  0  0
 21 33  1  0  0  0
 23 24  1  0  0  0
 23 25  1  0  0  0
 25 26  1  0  0  0
 26 27  4  0  0  0
 26 28  4  0  0  0
 27 29  4  0  0  0
 28 30  4  0  0  0
 29 31  4  0  0  0
 30 31  4  0  0  0
 33 32  1  0  0  0
 32 34  1  0  0  0
 32 44  1  0  0  0
 34 35  1  0  0  0
 34 37  1  0  0  0
 35 36  2  0  0  0
 35 45  1  0  0  0
 37 38  1  0  0  0
 38 39  1  0  0  0
 38 43  1  0  0  0
 39 40  1  0  0  0
 40 41  1  0  0  0
 41 42  1  0  0  0
 42 43  1  0  0  0
 43 44  1  0  0  0
 45 46  1  0  0  0
 46 47  1  0  0  0
 46 48  1  0  0  0
 46 49  1  0  0  0
  5 50  1  0  0  0
  6 51  1  0  0  0
  8 52  1  0  0  0
  9 53  1  0  0  0
 10 54  1  0  0  0
 11 55  1  0  0  0
 13 56  1  0  0  0
 14 57  1  0  0  0
 17 58  1  0  0  0
 17 59  1  0  0  0
 20 60  1  0  0  0
 20 61  1  0  0  0
 21 62  1  0  0  0
 22 63  1  0  0  0
 23 64  1  0  0  0
 24 65  1  0  0  0
 25 66  1  0  0  0
 25 67  1  0  0  0
 27 68  1  0  0  0
 28 69  1  0  0  0
 29 70  1  0  0  0
 30 71  1  0  0  0
 31 72  1  0  0  0
 33 73  1  0  0  0
 33 74  1  0  0  0
 34 75  1  0  0  0
 37 76  1  0  0  0
 37 77  1  0  0  0
 38 78  1  0  0  0
 39 79  1  0  0  0
 39 80  1  0  0  0
 40 81  1  0  0  0
 40 82  1  0  0  0
 41 83  1  0  0  0
 41 84  1  0  0  0
 42 85  1  0  0  0
 42 86  1  0  0  0
 43 87  1  0  0  0
 44 88  1  0  0  0
 44 89  1  0  0  0
 45 90  1  0  0  0
 47 91  1  0  0  0
 47 92  1  0  0  0
 47 93  1  0  0  0
 48 94  1  0  0  0
 48 95  1  0  0  0
 48 96  1  0  0  0
 49 97  1  0  0  0
 49 98  1  0  0  0
 49 99  1  0  0  0
M  END
$$$$
