### 
### Created by X-TOOL on Tue Oct 25 02:38:20 2005
### 

@<TRIPOS>MOLECULE
1hlk_ligand
   36    38     1     0     0
SMALL
GAST_HUCK


@<TRIPOS>ATOM
      1 C1         -8.3060  -25.2130   16.7850 C.ar      1 SUB1        0.122
      2 C2         -8.7670  -26.2360   15.9550 C.ar      1 SUB1        0.004
      3 C3         -8.9710  -27.5030   16.4990 C.ar      1 SUB1        0.125
      4 C4         -8.6530  -27.7580   17.8470 C.ar      1 SUB1        0.042
      5 C5         -7.8630  -26.8110   18.5520 C.ar      1 SUB1        0.028
      6 C6         -7.7670  -25.4980   18.0380 C.ar      1 SUB1        0.133
      7 O8         -9.4950  -28.4970   15.7000 O.3       1 SUB1       -0.248
      8 C9         -9.6990  -29.7770   16.1730 C.2       1 SUB1        0.125
      9 C10        -9.5880  -30.0980   17.4850 C.2       1 SUB1        0.068
     10 C11        -9.1800  -29.0070   18.4390 C.2       1 SUB1        0.092
     11 C12       -10.0500  -30.7850   15.1080 C.3       1 SUB1        0.046
     12 C13        -9.7150  -32.2130   15.5650 C.3       1 SUB1        0.075
     13 O14       -10.1670  -32.4430   16.9040 O.3       1 SUB1       -0.341
     14 C15        -9.8730  -31.5190   17.9600 C.3       1 SUB1        0.180
     15 O16        -7.1640  -24.4370   18.6950 O.3       1 SUB1       -0.329
     16 O17        -8.3700  -23.8850   16.4150 O.3       1 SUB1       -0.336
     17 C18        -7.1330  -27.1420   19.7910 C.2       1 SUB1        0.060
     18 O19        -7.7360  -26.7540   20.9260 O.co2     1 SUB1       -0.554
     19 O20        -8.8770  -32.0280   18.8460 O.3       1 SUB1       -0.350
     20 C22        -7.6540  -32.5450   18.3690 C.3       1 SUB1        0.041
     21 C26       -10.3340  -33.2880   14.6620 C.3       1 SUB1       -0.036
     22 O30        -6.0750  -27.7270   19.7820 O.co2     1 SUB1       -0.554
     23 O31        -9.3190  -29.1950   19.6260 O.2       1 SUB1       -0.438
     24 H21        -8.9630  -26.0484   14.9055 H         1 SUB1        0.049
     25 H111      -11.1278  -30.7313   14.8947 H         1 SUB1        0.052
     26 H112       -9.4758  -30.5676   14.1953 H         1 SUB1        0.052
     27 H121       -8.6226  -32.3368   15.5283 H         1 SUB1        0.062
     28 H141      -10.7880  -31.4517   18.5668 H         1 SUB1        0.097
     29 H151       -7.2220  -23.6575   18.1551 H         1 SUB1        0.251
     30 H161       -7.4940  -23.5176   16.4053 H         1 SUB1        0.245
     31 H201       -7.0474  -32.8768   19.2246 H         1 SUB1        0.053
     32 H202       -7.8421  -33.4043   17.7086 H         1 SUB1        0.053
     33 H203       -7.1048  -31.7647   17.8218 H         1 SUB1        0.053
     34 H211      -10.0556  -34.2810   15.0448 H         1 SUB1        0.026
     35 H212      -11.4301  -33.1966   14.6672 H         1 SUB1        0.026
     36 H213       -9.9535  -33.1803   13.6356 H         1 SUB1        0.026
@<TRIPOS>BOND
     1    1    2 ar 
     2    1    6 ar 
     3    1   16 1  
     4    2    3 ar 
     5    3    4 ar 
     6    3    7 1  
     7    4    5 ar 
     8    4   10 1  
     9    5    6 ar 
    10    5   17 1  
    11    6   15 1  
    12    7    8 1  
    13    8    9 2  
    14    8   11 1  
    15    9   10 1  
    16    9   14 1  
    17   10   23 2  
    18   11   12 1  
    19   12   13 1  
    20   12   21 1  
    21   13   14 1  
    22   14   19 1  
    23   17   18 2  
    24   17   22 2  
    25   19   20 1  
    26    2   24 1  
    27   11   25 1  
    28   11   26 1  
    29   12   27 1  
    30   14   28 1  
    31   15   29 1  
    32   16   30 1  
    33   20   31 1  
    34   20   32 1  
    35   20   33 1  
    36   21   34 1  
    37   21   35 1  
    38   21   36 1  
@<TRIPOS>SUBSTRUCTURE
     1 SUB1        1 GROUP

