1hlk_ligand
  -I-interpret- 

 36 38  0  0  0  0  0  0  0  0999 V2000
   -8.3060  -25.2130   16.7850 C   0  0  0  0  0
   -8.7670  -26.2360   15.9550 C   0  0  0  0  0
   -8.9710  -27.5030   16.4990 C   0  0  0  0  0
   -8.6530  -27.7580   17.8470 C   0  0  0  0  0
   -7.8630  -26.8110   18.5520 C   0  0  0  0  0
   -7.7670  -25.4980   18.0380 C   0  0  0  0  0
   -9.4950  -28.4970   15.7000 O   0  0  0  0  0
   -9.6990  -29.7770   16.1730 C   0  0  0  0  0
   -9.5880  -30.0980   17.4850 C   0  0  0  0  0
   -9.1800  -29.0070   18.4390 C   0  0  0  0  0
  -10.0500  -30.7850   15.1080 C   0  0  0  0  0
   -9.7150  -32.2130   15.5650 C   0  0  0  0  0
  -10.1670  -32.4430   16.9040 O   0  0  0  0  0
   -9.8730  -31.5190   17.9600 C   0  0  0  0  0
   -7.1640  -24.4370   18.6950 O   0  0  0  0  0
   -8.3700  -23.8850   16.4150 O   0  0  0  0  0
   -7.1330  -27.1420   19.7910 C   0  0  0  0  0
   -7.7360  -26.7540   20.9260 O   0  5  0  0  0
   -8.8770  -32.0280   18.8460 O   0  0  0  0  0
   -7.6540  -32.5450   18.3690 C   0  0  0  0  0
  -10.3340  -33.2880   14.6620 C   0  0  0  0  0
   -6.0750  -27.7270   19.7820 O   0  0  0  0  0
   -9.3190  -29.1950   19.6260 O   0  0  0  0  0
   -8.9630  -26.0484   14.9055 H   0  0  0  0  0
  -11.1278  -30.7313   14.8947 H   0  0  0  0  0
   -9.4758  -30.5676   14.1953 H   0  0  0  0  0
   -8.6226  -32.3368   15.5283 H   0  0  0  0  0
  -10.7880  -31.4517   18.5668 H   0  0  0  0  0
   -7.2220  -23.6575   18.1551 H   0  0  0  0  0
   -7.4940  -23.5176   16.4053 H   0  0  0  0  0
   -7.0474  -32.8768   19.2246 H   0  0  0  0  0
   -7.8421  -33.4043   17.7086 H   0  0  0  0  0
   -7.1048  -31.7647   17.8218 H   0  0  0  0  0
  -10.0556  -34.2810   15.0448 H   0  0  0  0  0
  -11.4301  -33.1966   14.6672 H   0  0  0  0  0
   -9.9535  -33.1803   13.6356 H   0  0  0  0  0
  1  2  4  0  0  0
  1  6  4  0  0  0
  1 16  1  0  0  0
  2  3  4  0  0  0
  3  4  4  0  0  0
  3  7  1  0  0  0
  4  5  4  0  0  0
  4 10  1  0  0  0
  5  6  4  0  0  0
  5 17  1  0  0  0
  6 15  1  0  0  0
  7  8  1  0  0  0
  8  9  2  0  0  0
  8 11  1  0  0  0
  9 10  1  0  0  0
  9 14  1  0  0  0
 10 23  2  0  0  0
 11 12  1  0  0  0
 12 13  1  0  0  0
 12 21  1  0  0  0
 13 14  1  0  0  0
 14 19  1  0  0  0
 17 18  1  0  0  0
 17 22  2  0  0  0
 19 20  1  0  0  0
  2 24  1  0  0  0
 11 25  1  0  0  0
 11 26  1  0  0  0
 12 27  1  0  0  0
 14 28  1  0  0  0
 15 29  1  0  0  0
 16 30  1  0  0  0
 20 31  1  0  0  0
 20 32  1  0  0  0
 20 33  1  0  0  0
 21 34  1  0  0  0
 21 35  1  0  0  0
 21 36  1  0  0  0
M  END
$$$$
