1m7i_ligand
  -I-interpret- 

113117  0  0  0  0  0  0  0  0999 V2000
  -11.6960   26.4010   35.0970 C   0  0  0  0  0
  -12.9110   26.2810   36.0230 C   0  0  0  0  0
  -13.5590   27.5360   36.1750 O   0  0  0  0  0
  -12.4680   25.7220   37.3960 C   0  0  0  0  0
  -13.5640   25.6660   38.2990 O   0  0  0  0  0
  -11.3090   26.5600   37.9840 C   0  0  0  0  0
  -10.8190   25.9690   39.1810 O   0  0  0  0  0
  -10.1640   26.7080   36.9710 C   0  0  0  0  0
  -10.6780   27.2300   35.7160 O   0  0  0  0  0
   -9.1070   27.6510   37.5420 C   0  0  0  0  0
   -9.3250   23.7430   34.2760 C   0  0  0  0  0
  -10.1510   24.9670   33.8760 C   0  0  0  0  0
  -11.2260   25.0750   34.8210 O   0  0  0  0  0
  -10.7410   24.7690   32.4690 C   0  0  0  0  0
  -11.5770   25.8610   32.1180 O   0  0  0  0  0
  -11.5290   23.4530   32.3840 C   0  0  0  0  0
  -11.9700   23.2290   31.0510 O   0  0  0  0  0
  -10.6780   22.2700   32.8760 C   0  0  0  0  0
  -10.1580   22.5590   34.1960 O   0  0  0  0  0
  -11.5180   20.9920   32.9270 C   0  0  0  0  0
   -5.3990   21.0560   33.9300 C   0  0  0  0  0
   -6.6270   21.7320   33.3170 C   0  0  0  0  0
   -6.3570   22.1440   31.9870 O   0  0  0  0  0
   -7.0500   22.9310   34.1590 C   0  0  0  0  0
   -8.1120   23.6510   33.4960 O   0  0  0  0  0
   -5.8660   23.8780   34.4160 C   0  0  0  0  0
   -6.2500   24.8850   35.3310 O   0  0  0  0  0
   -4.6560   23.1220   34.9620 C   0  0  0  0  0
   -4.3370   22.0220   34.0900 O   0  0  0  0  0
   -3.4630   24.0650   35.0560 C   0  0  0  0  0
   -6.3780   16.6640   34.7130 C   0  0  0  0  0
   -6.6850   18.1640   34.6340 C   0  0  0  0  0
   -5.4620   18.9640   35.1300 C   0  0  0  0  0
   -5.0020   18.4860   36.5190 C   0  0  0  0  0
   -4.8150   16.9580   36.5300 C   0  0  0  0  0
   -4.4790   16.4250   37.9220 C   0  0  0  0  0
   -8.1530   19.1010   32.9470 C   0  0  0  0  0
   -8.3820   19.4050   31.4800 C   0  0  0  0  0
   -6.9990   18.5080   33.2560 N   0  0  0  0  0
   -5.7400   20.3790   35.1590 O   0  0  0  0  0
   -3.7890   19.1340   36.8700 O   0  0  0  0  0
   -6.0070   16.3100   36.0500 O   0  0  0  0  0
   -4.6180   15.0100   37.9480 O   0  0  0  0  0
   -8.9910   19.4060   33.7920 O   0  0  0  0  0
   -6.2610   13.7550   34.4460 C   0  0  0  0  0
   -5.7520   12.6740   33.6410 O   0  0  0  0  0
   -5.1210   11.6370   34.3910 C   0  0  0  0  0
   -7.5110   15.9000   34.2660 O   0  0  0  0  0
   -7.1900   14.6560   33.6050 C   0  0  0  0  0
   -8.4800   13.9110   33.2550 C   0  0  0  0  0
   -9.3910   14.8100   32.6360 O   0  0  0  0  0
   -9.1350   13.3000   34.5090 C   0  0  0  0  0
  -10.2390   12.4860   34.1330 O   0  0  0  0  0
   -8.1160   12.4750   35.3260 C   0  0  0  0  0
   -6.9520   13.2820   35.6200 O   0  0  0  0  0
   -8.7080   11.9210   36.6200 C   0  0  0  0  0
  -11.9986   26.8622   34.1453 H   0  0  0  0  0
  -13.6239   25.5676   35.5839 H   0  0  0  0  0
  -14.3073   27.4370   36.7518 H   0  0  0  0  0
  -12.0889   24.7001   37.2480 H   0  0  0  0  0
  -13.9152   26.5398   38.4236 H   0  0  0  0  0
  -11.6852   27.5680   38.2127 H   0  0  0  0  0
  -11.5203   25.9227   39.8201 H   0  0  0  0  0
   -9.6971   25.7276   36.7955 H   0  0  0  0  0
   -8.2888   27.7546   36.8141 H   0  0  0  0  0
   -9.5487   28.6411   37.7277 H   0  0  0  0  0
   -8.7032   27.2388   38.4785 H   0  0  0  0  0
   -9.0110   23.8647   35.3231 H   0  0  0  0  0
   -9.5295   25.8745   33.8825 H   0  0  0  0  0
   -9.9138   24.7092   31.7464 H   0  0  0  0  0
  -12.2888   25.9274   32.7437 H   0  0  0  0  0
  -12.4082   23.5249   33.0410 H   0  0  0  0  0
  -12.5312   23.9459   30.7796 H   0  0  0  0  0
   -9.8430   22.1065   32.1789 H   0  0  0  0  0
  -10.8876   20.1630   33.2811 H   0  0  0  0  0
  -12.3599   21.1240   33.6224 H   0  0  0  0  0
  -11.8956   20.7510   31.9224 H   0  0  0  0  0
   -5.0480   20.2807   33.2331 H   0  0  0  0  0
   -7.4609   21.0148   33.3072 H   0  0  0  0  0
   -7.1291   22.5609   31.6229 H   0  0  0  0  0
   -7.4109   22.5713   35.1338 H   0  0  0  0  0
   -5.5699   24.3452   33.4652 H   0  0  0  0  0
   -6.9763   25.3794   34.9697 H   0  0  0  0  0
   -4.8812   22.7419   35.9693 H   0  0  0  0  0
   -2.5984   23.5106   35.4499 H   0  0  0  0  0
   -3.2138   24.4553   34.0582 H   0  0  0  0  0
   -3.6953   24.8971   35.7369 H   0  0  0  0  0
   -5.5377   16.4357   34.0409 H   0  0  0  0  0
   -7.5577   18.4006   35.2603 H   0  0  0  0  0
   -4.6379   18.8068   34.4186 H   0  0  0  0  0
   -5.7629   18.7593   37.2648 H   0  0  0  0  0
   -3.9912   16.7027   35.8472 H   0  0  0  0  0
   -3.4405   16.6829   38.1769 H   0  0  0  0  0
   -5.1662   16.8614   38.6618 H   0  0  0  0  0
   -9.3626   19.8895   31.3635 H   0  0  0  0  0
   -7.6003   20.0854   31.1115 H   0  0  0  0  0
   -8.3721   18.4719   30.8976 H   0  0  0  0  0
   -6.3421   18.2975   32.5320 H   0  0  0  0  0
   -3.9193   20.0749   36.8591 H   0  0  0  0  0
   -5.5131   14.7768   37.7312 H   0  0  0  0  0
   -5.4082   14.3568   34.7930 H   0  0  0  0  0
   -4.7656   10.8597   33.6986 H   0  0  0  0  0
   -4.2617   12.0438   34.9442 H   0  0  0  0  0
   -5.8409   11.1900   35.0923 H   0  0  0  0  0
   -6.6658   14.9111   32.6723 H   0  0  0  0  0
   -8.2450   13.0906   32.5610 H   0  0  0  0  0
   -9.5872   15.5218   33.2338 H   0  0  0  0  0
   -9.4953   14.1156   35.1532 H   0  0  0  0  0
  -10.8789   13.0155   33.6719 H   0  0  0  0  0
   -7.8046   11.6129   34.7179 H   0  0  0  0  0
   -7.9343   11.3469   37.1508 H   0  0  0  0  0
   -9.0445   12.7478   37.2627 H   0  0  0  0  0
   -9.5536   11.2558   36.3910 H   0  0  0  0  0
  1  2  1  0  0  0
  1  9  1  0  0  0
  2  3  1  0  0  0
  2  4  1  0  0  0
  4  5  1  0  0  0
  4  6  1  0  0  0
  6  7  1  0  0  0
  8  6  1  0  0  0
  9  8  1  0  0  0
  8 10  1  0  0  0
 11 12  1  0  0  0
 11 19  1  0  0  0
 12 13  1  0  0  0
 12 14  1  0  0  0
 13  1  1  0  0  0
 14 15  1  0  0  0
 14 16  1  0  0  0
 16 17  1  0  0  0
 18 16  1  0  0  0
 19 18  1  0  0  0
 18 20  1  0  0  0
 21 22  1  0  0  0
 21 29  1  0  0  0
 22 23  1  0  0  0
 22 24  1  0  0  0
 24 25  1  0  0  0
 24 26  1  0  0  0
 25 11  1  0  0  0
 26 27  1  0  0  0
 28 26  1  0  0  0
 29 28  1  0  0  0
 28 30  1  0  0  0
 31 32  1  0  0  0
 31 42  1  0  0  0
 32 33  1  0  0  0
 32 39  1  0  0  0
 33 34  1  0  0  0
 33 40  1  0  0  0
 35 34  1  0  0  0
 34 41  1  0  0  0
 35 36  1  0  0  0
 42 35  1  0  0  0
 36 43  1  0  0  0
 37 38  1  0  0  0
 39 37  1  0  0  0
 37 44  2  0  0  0
 40 21  1  0  0  0
 45 46  1  0  0  0
 49 45  1  0  0  0
 45 55  1  0  0  0
 46 47  1  0  0  0
 49 50  1  0  0  0
 50 51  1  0  0  0
 50 52  1  0  0  0
 52 53  1  0  0  0
 52 54  1  0  0  0
 55 54  1  0  0  0
 54 56  1  0  0  0
 48 49  1  0  0  0
 48 31  1  0  0  0
  1 57  1  0  0  0
  2 58  1  0  0  0
  3 59  1  0  0  0
  4 60  1  0  0  0
  5 61  1  0  0  0
  6 62  1  0  0  0
  7 63  1  0  0  0
  8 64  1  0  0  0
 10 65  1  0  0  0
 10 66  1  0  0  0
 10 67  1  0  0  0
 11 68  1  0  0  0
 12 69  1  0  0  0
 14 70  1  0  0  0
 15 71  1  0  0  0
 16 72  1  0  0  0
 17 73  1  0  0  0
 18 74  1  0  0  0
 20 75  1  0  0  0
 20 76  1  0  0  0
 20 77  1  0  0  0
 21 78  1  0  0  0
 22 79  1  0  0  0
 23 80  1  0  0  0
 24 81  1  0  0  0
 26 82  1  0  0  0
 27 83  1  0  0  0
 28 84  1  0  0  0
 30 85  1  0  0  0
 30 86  1  0  0  0
 30 87  1  0  0  0
 31 88  1  0  0  0
 32 89  1  0  0  0
 33 90  1  0  0  0
 34 91  1  0  0  0
 35 92  1  0  0  0
 36 93  1  0  0  0
 36 94  1  0  0  0
 38 95  1  0  0  0
 38 96  1  0  0  0
 38 97  1  0  0  0
 39 98  1  0  0  0
 41 99  1  0  0  0
 43100  1  0  0  0
 45101  1  0  0  0
 47102  1  0  0  0
 47103  1  0  0  0
 47104  1  0  0  0
 49105  1  0  0  0
 50106  1  0  0  0
 51107  1  0  0  0
 52108  1  0  0  0
 53109  1  0  0  0
 54110  1  0  0  0
 56111  1  0  0  0
 56112  1  0  0  0
 56113  1  0  0  0
M  END
$$$$
