### 
### Created by X-TOOL on Tue Oct 25 02:40:53 2005
### 

@<TRIPOS>MOLECULE
1m7i_ligand
  113   117     1     0     0
SMALL
GAST_HUCK


@<TRIPOS>ATOM
      1 C1        -11.6960   26.4010   35.0970 C.3       1 SUB1        0.188
      2 C2        -12.9110   26.2810   36.0230 C.3       1 SUB1        0.134
      3 O2        -13.5590   27.5360   36.1750 O.3       1 SUB1       -0.384
      4 C3        -12.4680   25.7220   37.3960 C.3       1 SUB1        0.114
      5 O3        -13.5640   25.6660   38.2990 O.3       1 SUB1       -0.386
      6 C4        -11.3090   26.5600   37.9840 C.3       1 SUB1        0.109
      7 O4        -10.8190   25.9690   39.1810 O.3       1 SUB1       -0.387
      8 C5        -10.1640   26.7080   36.9710 C.3       1 SUB1        0.087
      9 O5        -10.6780   27.2300   35.7160 O.3       1 SUB1       -0.343
     10 C6         -9.1070   27.6510   37.5420 C.3       1 SUB1       -0.036
     11 C1         -9.3250   23.7430   34.2760 C.3       1 SUB1        0.189
     12 C2        -10.1510   24.9670   33.8760 C.3       1 SUB1        0.141
     13 O2        -11.2260   25.0750   34.8210 O.3       1 SUB1       -0.338
     14 C3        -10.7410   24.7690   32.4690 C.3       1 SUB1        0.114
     15 O3        -11.5770   25.8610   32.1180 O.3       1 SUB1       -0.386
     16 C4        -11.5290   23.4530   32.3840 C.3       1 SUB1        0.109
     17 O4        -11.9700   23.2290   31.0510 O.3       1 SUB1       -0.387
     18 C5        -10.6780   22.2700   32.8760 C.3       1 SUB1        0.087
     19 O5        -10.1580   22.5590   34.1960 O.3       1 SUB1       -0.343
     20 C6        -11.5180   20.9920   32.9270 C.3       1 SUB1       -0.036
     21 C1         -5.3990   21.0560   33.9300 C.3       1 SUB1        0.188
     22 C2         -6.6270   21.7320   33.3170 C.3       1 SUB1        0.134
     23 O2         -6.3570   22.1440   31.9870 O.3       1 SUB1       -0.384
     24 C3         -7.0500   22.9310   34.1590 C.3       1 SUB1        0.120
     25 O3         -8.1120   23.6510   33.4960 O.3       1 SUB1       -0.340
     26 C4         -5.8660   23.8780   34.4160 C.3       1 SUB1        0.110
     27 O4         -6.2500   24.8850   35.3310 O.3       1 SUB1       -0.387
     28 C5         -4.6560   23.1220   34.9620 C.3       1 SUB1        0.087
     29 O5         -4.3370   22.0220   34.0900 O.3       1 SUB1       -0.343
     30 C6         -3.4630   24.0650   35.0560 C.3       1 SUB1       -0.036
     31 C1         -6.3780   16.6640   34.7130 C.3       1 SUB1        0.185
     32 C2         -6.6850   18.1640   34.6340 C.3       1 SUB1        0.121
     33 C3         -5.4620   18.9640   35.1300 C.3       1 SUB1        0.118
     34 C4         -5.0020   18.4860   36.5190 C.3       1 SUB1        0.112
     35 C5         -4.8150   16.9580   36.5300 C.3       1 SUB1        0.113
     36 C6         -4.4790   16.4250   37.9220 C.3       1 SUB1        0.073
     37 C7         -8.1530   19.1010   32.9470 C.2       1 SUB1        0.173
     38 C8         -8.3820   19.4050   31.4800 C.3       1 SUB1        0.026
     39 N2         -6.9990   18.5080   33.2560 N.am      1 SUB1       -0.277
     40 O3         -5.7400   20.3790   35.1590 O.3       1 SUB1       -0.340
     41 O4         -3.7890   19.1340   36.8700 O.3       1 SUB1       -0.387
     42 O5         -6.0070   16.3100   36.0500 O.3       1 SUB1       -0.341
     43 O6         -4.6180   15.0100   37.9480 O.3       1 SUB1       -0.392
     44 O7         -8.9910   19.4060   33.7920 O.2       1 SUB1       -0.397
     45 C1         -6.2610   13.7550   34.4460 C.3       1 SUB1        0.188
     46 O1         -5.7520   12.6740   33.6410 O.3       1 SUB1       -0.352
     47 C7         -5.1210   11.6370   34.3910 C.3       1 SUB1        0.040
     48 O2         -7.5110   15.9000   34.2660 O.3       1 SUB1       -0.338
     49 C2         -7.1900   14.6560   33.6050 C.3       1 SUB1        0.141
     50 C3         -8.4800   13.9110   33.2550 C.3       1 SUB1        0.114
     51 O3         -9.3910   14.8100   32.6360 O.3       1 SUB1       -0.386
     52 C4         -9.1350   13.3000   34.5090 C.3       1 SUB1        0.109
     53 O4        -10.2390   12.4860   34.1330 O.3       1 SUB1       -0.387
     54 C5         -8.1160   12.4750   35.3260 C.3       1 SUB1        0.087
     55 O5         -6.9520   13.2820   35.6200 O.3       1 SUB1       -0.343
     56 C6         -8.7080   11.9210   36.6200 C.3       1 SUB1       -0.036
     57 H11       -11.9986   26.8622   34.1453 H         1 SUB1        0.094
     58 H21       -13.6239   25.5676   35.5839 H         1 SUB1        0.067
     59 H31       -14.3073   27.4370   36.7518 H         1 SUB1        0.210
     60 H41       -12.0889   24.7001   37.2480 H         1 SUB1        0.065
     61 H51       -13.9152   26.5398   38.4236 H         1 SUB1        0.210
     62 H61       -11.6852   27.5680   38.2127 H         1 SUB1        0.065
     63 H71       -11.5203   25.9227   39.8201 H         1 SUB1        0.210
     64 H81        -9.6971   25.7276   36.7955 H         1 SUB1        0.062
     65 H101       -8.2888   27.7546   36.8141 H         1 SUB1        0.025
     66 H102       -9.5487   28.6411   37.7277 H         1 SUB1        0.025
     67 H103       -8.7032   27.2388   38.4785 H         1 SUB1        0.025
     68 H111       -9.0110   23.8647   35.3231 H         1 SUB1        0.094
     69 H121       -9.5295   25.8745   33.8825 H         1 SUB1        0.068
     70 H141       -9.9138   24.7092   31.7464 H         1 SUB1        0.065
     71 H151      -12.2888   25.9274   32.7437 H         1 SUB1        0.210
     72 H161      -12.4082   23.5249   33.0410 H         1 SUB1        0.065
     73 H171      -12.5312   23.9459   30.7796 H         1 SUB1        0.210
     74 H181       -9.8430   22.1065   32.1789 H         1 SUB1        0.062
     75 H201      -10.8876   20.1630   33.2811 H         1 SUB1        0.025
     76 H202      -12.3599   21.1240   33.6224 H         1 SUB1        0.025
     77 H203      -11.8956   20.7510   31.9224 H         1 SUB1        0.025
     78 H211       -5.0480   20.2807   33.2331 H         1 SUB1        0.094
     79 H221       -7.4609   21.0148   33.3072 H         1 SUB1        0.067
     80 H231       -7.1291   22.5609   31.6229 H         1 SUB1        0.210
     81 H241       -7.4109   22.5713   35.1338 H         1 SUB1        0.065
     82 H261       -5.5699   24.3452   33.4652 H         1 SUB1        0.065
     83 H271       -6.9763   25.3794   34.9697 H         1 SUB1        0.210
     84 H281       -4.8812   22.7419   35.9693 H         1 SUB1        0.062
     85 H301       -2.5984   23.5106   35.4499 H         1 SUB1        0.025
     86 H302       -3.2138   24.4553   34.0582 H         1 SUB1        0.025
     87 H303       -3.6953   24.8971   35.7369 H         1 SUB1        0.025
     88 H311       -5.5377   16.4357   34.0409 H         1 SUB1        0.094
     89 H321       -7.5577   18.4006   35.2603 H         1 SUB1        0.063
     90 H331       -4.6379   18.8068   34.4186 H         1 SUB1        0.065
     91 H341       -5.7629   18.7593   37.2648 H         1 SUB1        0.065
     92 H351       -3.9912   16.7027   35.8472 H         1 SUB1        0.065
     93 H361       -3.4405   16.6829   38.1769 H         1 SUB1        0.058
     94 H362       -5.1662   16.8614   38.6618 H         1 SUB1        0.058
     95 H381       -9.3626   19.8895   31.3635 H         1 SUB1        0.047
     96 H382       -7.6003   20.0854   31.1115 H         1 SUB1        0.047
     97 H383       -8.3721   18.4719   30.8976 H         1 SUB1        0.047
     98 H391       -6.3421   18.2975   32.5320 H         1 SUB1        0.186
     99 H411       -3.9193   20.0749   36.8591 H         1 SUB1        0.210
    100 H431       -5.5131   14.7768   37.7312 H         1 SUB1        0.209
    101 H451       -5.4082   14.3568   34.7930 H         1 SUB1        0.094
    102 H471       -4.7656   10.8597   33.6986 H         1 SUB1        0.052
    103 H472       -4.2617   12.0438   34.9442 H         1 SUB1        0.052
    104 H473       -5.8409   11.1900   35.0923 H         1 SUB1        0.052
    105 H491       -6.6658   14.9111   32.6723 H         1 SUB1        0.068
    106 H501       -8.2450   13.0906   32.5610 H         1 SUB1        0.065
    107 H511       -9.5872   15.5218   33.2338 H         1 SUB1        0.210
    108 H521       -9.4953   14.1156   35.1532 H         1 SUB1        0.065
    109 H531      -10.8789   13.0155   33.6719 H         1 SUB1        0.210
    110 H541       -7.8046   11.6129   34.7179 H         1 SUB1        0.062
    111 H561       -7.9343   11.3469   37.1508 H         1 SUB1        0.025
    112 H562       -9.0445   12.7478   37.2627 H         1 SUB1        0.025
    113 H563       -9.5536   11.2558   36.3910 H         1 SUB1        0.025
@<TRIPOS>BOND
     1    1    2 1  
     2    1    9 1  
     3    2    3 1  
     4    2    4 1  
     5    4    5 1  
     6    4    6 1  
     7    6    7 1  
     8    8    6 1  
     9    9    8 1  
    10    8   10 1  
    11   11   12 1  
    12   11   19 1  
    13   12   13 1  
    14   12   14 1  
    15   13    1 1  
    16   14   15 1  
    17   14   16 1  
    18   16   17 1  
    19   18   16 1  
    20   19   18 1  
    21   18   20 1  
    22   21   22 1  
    23   21   29 1  
    24   22   23 1  
    25   22   24 1  
    26   24   25 1  
    27   24   26 1  
    28   25   11 1  
    29   26   27 1  
    30   28   26 1  
    31   29   28 1  
    32   28   30 1  
    33   31   32 1  
    34   31   42 1  
    35   32   33 1  
    36   32   39 1  
    37   33   34 1  
    38   33   40 1  
    39   35   34 1  
    40   34   41 1  
    41   35   36 1  
    42   42   35 1  
    43   36   43 1  
    44   37   38 1  
    45   39   37 am 
    46   37   44 2  
    47   40   21 1  
    48   45   46 1  
    49   49   45 1  
    50   45   55 1  
    51   46   47 1  
    52   49   50 1  
    53   50   51 1  
    54   50   52 1  
    55   52   53 1  
    56   52   54 1  
    57   55   54 1  
    58   54   56 1  
    59   48   49 1  
    60   48   31 1  
    61    1   57 1  
    62    2   58 1  
    63    3   59 1  
    64    4   60 1  
    65    5   61 1  
    66    6   62 1  
    67    7   63 1  
    68    8   64 1  
    69   10   65 1  
    70   10   66 1  
    71   10   67 1  
    72   11   68 1  
    73   12   69 1  
    74   14   70 1  
    75   15   71 1  
    76   16   72 1  
    77   17   73 1  
    78   18   74 1  
    79   20   75 1  
    80   20   76 1  
    81   20   77 1  
    82   21   78 1  
    83   22   79 1  
    84   23   80 1  
    85   24   81 1  
    86   26   82 1  
    87   27   83 1  
    88   28   84 1  
    89   30   85 1  
    90   30   86 1  
    91   30   87 1  
    92   31   88 1  
    93   32   89 1  
    94   33   90 1  
    95   34   91 1  
    96   35   92 1  
    97   36   93 1  
    98   36   94 1  
    99   38   95 1  
   100   38   96 1  
   101   38   97 1  
   102   39   98 1  
   103   41   99 1  
   104   43  100 1  
   105   45  101 1  
   106   47  102 1  
   107   47  103 1  
   108   47  104 1  
   109   49  105 1  
   110   50  106 1  
   111   51  107 1  
   112   52  108 1  
   113   53  109 1  
   114   54  110 1  
   115   56  111 1  
   116   56  112 1  
   117   56  113 1  
@<TRIPOS>SUBSTRUCTURE
     1 SUB1        1 GROUP

