1hbv_ligand
  -I-interpret- 

 95 96  0  0  0  0  0  0  0  0999 V2000
   -3.5183   16.4472   18.6088 H   0  0  0  0  0
   -4.7102   17.5440   18.3159 H   0  0  0  0  0
   -5.0957   16.0213   18.8080 H   0  0  0  0  0
   -4.0620   16.3786   20.9697 H   0  0  0  0  0
   -3.3241   18.6937   21.5262 H   0  0  0  0  0
   -3.6776   19.2162   19.8444 H   0  0  0  0  0
   -2.3647   18.0315   20.1596 H   0  0  0  0  0
   -5.8796   16.4397   22.2879 H   0  0  0  0  0
   -7.8607   18.6265   21.9954 H   0  0  0  0  0
   -9.7191   17.0054   21.7856 H   0  0  0  0  0
   -8.5384   15.6543   21.7019 H   0  0  0  0  0
   -8.5959   16.8795   20.3896 H   0  0  0  0  0
   -6.5653   19.1285   24.0868 H   0  0  0  0  0
   -6.7552   17.0843   26.3216 H   0  0  0  0  0
   -5.8752   18.9763   27.7469 H   0  0  0  0  0
   -6.0338   20.0637   26.3260 H   0  0  0  0  0
   -4.0960   20.2743   25.0587 H   0  0  0  0  0
   -2.1084   19.3019   23.9356 H   0  0  0  0  0
   -1.5369   16.9210   24.2913 H   0  0  0  0  0
   -2.9180   15.5258   25.7890 H   0  0  0  0  0
   -4.8907   16.4799   26.9362 H   0  0  0  0  0
   -8.6523   19.4703   26.5414 H   0  0  0  0  0
   -8.2540   18.3131   27.8562 H   0  0  0  0  0
   -7.5408   15.2839   24.2296 H   0  0  0  0  0
   -9.1508   15.7988   23.6216 H   0  0  0  0  0
   -8.0283   15.8120   26.4069 H   0  0  0  0  0
   -9.6814   15.4247   25.8203 H   0  0  0  0  0
   -9.4341   17.8992   25.3048 H   0  0  0  0  0
  -11.0103   18.6135   26.5706 H   0  0  0  0  0
  -12.5846   16.7756   25.8161 H   0  0  0  0  0
  -11.1492   15.7321   25.5378 H   0  0  0  0  0
  -11.3565   17.2453   24.5923 H   0  0  0  0  0
  -12.1241   15.4924   27.4230 H   0  0  0  0  0
  -12.9805   16.3219   30.0105 H   0  0  0  0  0
  -14.0798   14.5670   28.3864 H   0  0  0  0  0
  -15.0092   13.3234   30.3142 H   0  0  0  0  0
  -14.8479   15.0806   30.6499 H   0  0  0  0  0
  -13.6558   13.9228   31.3319 H   0  0  0  0  0
  -12.1616   13.0576   28.0661 H   0  0  0  0  0
  -13.5699   12.2103   28.7910 H   0  0  0  0  0
  -12.1740   12.6756   29.8212 H   0  0  0  0  0
  -12.1904   16.0146   31.9623 H   0  0  0  0  0
  -10.0963   14.0658   32.6253 H   0  0  0  0  0
   -9.4101   16.6224   33.9468 H   0  0  0  0  0
   -7.9447   17.5461   32.2405 H   0  0  0  0  0
   -9.6407   17.6182   31.6532 H   0  0  0  0  0
   -8.5302   16.3476   31.0375 H   0  0  0  0  0
   -8.3010   14.3522   33.9820 H   0  0  0  0  0
   -7.1657   15.6279   33.4249 H   0  0  0  0  0
   -7.9359   14.5277   32.2320 H   0  0  0  0  0
  -12.8203   12.2893   34.4417 H   0  0  0  0  0
  -11.6773   12.7110   33.1218 H   0  0  0  0  0
  -13.2884   13.5014   33.2014 H   0  0  0  0  0
   -4.4280   16.7710   18.8980 N   0  3  0  0  0
   -4.3680   17.2180   20.3280 C   0  0  0  0  0
   -3.3620   18.3720   20.4750 C   0  0  0  0  0
   -5.7600   17.7000   20.7290 C   0  0  0  0  0
   -6.2830   18.5900   20.0580 O   0  0  0  0  0
   -6.3570   17.1560   21.7790 N   0  0  0  0  0
   -7.6830   17.5640   22.2180 C   0  0  0  0  0
   -8.7050   16.7170   21.4720 C   0  0  0  0  0
   -7.6940   17.3450   23.7270 C   0  0  0  0  0
   -7.0530   18.2710   24.5480 C   0  0  0  0  0
   -7.0060   18.1300   26.0900 C   0  0  0  0  0
   -5.8960   19.0210   26.6480 C   0  0  0  0  0
   -4.6210   18.4400   26.0610 C   0  0  0  0  0
   -3.8370   19.2340   25.2190 C   0  0  0  0  0
   -2.7210   18.6870   24.5850 C   0  0  0  0  0
   -2.3980   17.3520   24.7890 C   0  0  0  0  0
   -3.1800   16.5660   25.6330 C   0  0  0  0  0
   -4.2900   17.0960   26.2770 C   0  0  0  0  0
   -8.3400   18.4400   26.7670 C   0  0  0  0  0
   -8.3080   16.0710   24.2740 C   0  0  0  0  0
   -8.8420   16.1310   25.7390 C   0  0  0  0  0
   -9.3220   17.4680   26.2090 N   0  3  0  0  0
  -10.7340   17.5520   26.6530 C   0  0  0  0  0
  -11.5120   16.7700   25.5720 C   0  0  0  0  0
  -11.1870   17.1440   28.0890 C   0  0  0  0  0
  -10.8830   17.8630   29.0480 O   0  0  0  0  0
  -11.9160   16.0210   28.2460 N   0  0  0  0  0
  -12.4280   15.5100   29.5150 C   0  0  0  0  0
  -13.4480   14.3020   29.2470 C   0  0  0  0  0
  -14.2960   14.1470   30.4660 C   0  0  0  0  0
  -12.7940   12.9710   28.9620 C   0  0  0  0  0
  -11.2970   15.0750   30.4500 C   0  0  0  0  0
  -10.3540   14.3820   30.0320 O   0  0  0  0  0
  -11.4050   15.4490   31.7110 N   0  0  0  0  0
  -10.4580   15.0950   32.7660 C   0  0  0  0  0
   -9.2350   16.0340   33.0340 C   0  0  0  0  0
   -8.8090   16.9480   31.9160 C   0  0  0  0  0
   -8.0810   15.0700   33.1780 C   0  0  0  0  0
  -11.3900   15.2500   33.9910 C   0  0  0  0  0
  -12.0240   16.3120   34.1420 O   0  0  0  0  0
  -11.8900   14.1670   34.6250 O   0  0  0  0  0
  -12.4540   13.1010   33.7960 C   0  0  0  0  0
 54  1  1  0  0  0
 54  2  1  0  0  0
 54  3  1  0  0  0
 55  4  1  0  0  0
 56  5  1  0  0  0
 56  6  1  0  0  0
 56  7  1  0  0  0
 59  8  1  0  0  0
 60  9  1  0  0  0
 61 10  1  0  0  0
 61 11  1  0  0  0
 61 12  1  0  0  0
 63 13  1  0  0  0
 64 14  1  0  0  0
 65 15  1  0  0  0
 65 16  1  0  0  0
 67 17  1  0  0  0
 68 18  1  0  0  0
 69 19  1  0  0  0
 70 20  1  0  0  0
 71 21  1  0  0  0
 72 22  1  0  0  0
 72 23  1  0  0  0
 73 24  1  0  0  0
 73 25  1  0  0  0
 74 26  1  0  0  0
 74 27  1  0  0  0
 75 28  1  0  0  0
 76 29  1  0  0  0
 77 30  1  0  0  0
 77 31  1  0  0  0
 77 32  1  0  0  0
 80 33  1  0  0  0
 81 34  1  0  0  0
 82 35  1  0  0  0
 83 36  1  0  0  0
 83 37  1  0  0  0
 83 38  1  0  0  0
 84 39  1  0  0  0
 84 40  1  0  0  0
 84 41  1  0  0  0
 87 42  1  0  0  0
 88 43  1  0  0  0
 89 44  1  0  0  0
 90 45  1  0  0  0
 90 46  1  0  0  0
 90 47  1  0  0  0
 91 48  1  0  0  0
 91 49  1  0  0  0
 91 50  1  0  0  0
 95 51  1  0  0  0
 95 52  1  0  0  0
 95 53  1  0  0  0
 55 54  1  0  0  0
 55 56  1  0  0  0
 57 55  1  0  0  0
 57 58  2  0  0  0
 59 57  1  0  0  0
 60 59  1  0  0  0
 60 61  1  0  0  0
 62 60  1  0  0  0
 62 63  2  0  0  0
 73 62  1  0  0  0
 64 63  1  0  0  0
 64 65  1  0  0  0
 72 64  1  0  0  0
 65 66  1  0  0  0
 66 67  4  0  0  0
 66 71  4  0  0  0
 67 68  4  0  0  0
 68 69  4  0  0  0
 70 69  4  0  0  0
 71 70  4  0  0  0
 75 72  1  0  0  0
 74 73  1  0  0  0
 75 74  1  0  0  0
 76 75  1  0  0  0
 76 77  1  0  0  0
 78 76  1  0  0  0
 78 79  2  0  0  0
 80 78  1  0  0  0
 81 80  1  0  0  0
 81 82  1  0  0  0
 85 81  1  0  0  0
 82 83  1  0  0  0
 82 84  1  0  0  0
 85 86  2  0  0  0
 87 85  1  0  0  0
 88 87  1  0  0  0
 88 89  1  0  0  0
 92 88  1  0  0  0
 89 90  1  0  0  0
 89 91  1  0  0  0
 92 93  2  0  0  0
 94 92  1  0  0  0
 94 95  1  0  0  0
M  END
$$$$
