### 
### Created by X-TOOL on Tue Oct 25 01:47:05 2005
### 

@<TRIPOS>MOLECULE
1hbv_ligand
   95    96     1     0     0
SMALL
GAST_HUCK


@<TRIPOS>ATOM
      1 H541       -3.5183   16.4472   18.6088 H         1 SUB1        0.201
      2 H542       -4.7102   17.5440   18.3159 H         1 SUB1        0.201
      3 H543       -5.0957   16.0213   18.8080 H         1 SUB1        0.201
      4 H551       -4.0620   16.3786   20.9697 H         1 SUB1        0.109
      5 H561       -3.3241   18.6937   21.5262 H         1 SUB1        0.031
      6 H562       -3.6776   19.2162   19.8444 H         1 SUB1        0.031
      7 H563       -2.3647   18.0315   20.1596 H         1 SUB1        0.031
      8 H591       -5.8796   16.4397   22.2879 H         1 SUB1        0.188
      9 H601       -7.8607   18.6265   21.9954 H         1 SUB1        0.070
     10 H611       -9.7191   17.0054   21.7856 H         1 SUB1        0.027
     11 H612       -8.5384   15.6543   21.7019 H         1 SUB1        0.027
     12 H613       -8.5959   16.8795   20.3896 H         1 SUB1        0.027
     13 H631       -6.5653   19.1285   24.0868 H         1 SUB1        0.025
     14 H641       -6.7552   17.0843   26.3216 H         1 SUB1        0.045
     15 H651       -5.8752   18.9763   27.7469 H         1 SUB1        0.045
     16 H652       -6.0338   20.0637   26.3260 H         1 SUB1        0.045
     17 H671       -4.0960   20.2743   25.0587 H         1 SUB1        0.056
     18 H681       -2.1084   19.3019   23.9356 H         1 SUB1        0.060
     19 H691       -1.5369   16.9210   24.2913 H         1 SUB1        0.056
     20 H701       -2.9180   15.5258   25.7890 H         1 SUB1        0.060
     21 H711       -4.8907   16.4799   26.9362 H         1 SUB1        0.056
     22 H721       -8.6523   19.4703   26.5414 H         1 SUB1        0.083
     23 H722       -8.2540   18.3131   27.8562 H         1 SUB1        0.083
     24 H731       -7.5408   15.2839   24.2296 H         1 SUB1        0.046
     25 H732       -9.1508   15.7988   23.6216 H         1 SUB1        0.046
     26 H741       -8.0283   15.8120   26.4069 H         1 SUB1        0.084
     27 H742       -9.6814   15.4247   25.8203 H         1 SUB1        0.084
     28 H751       -9.4341   17.8992   25.3048 H         1 SUB1        0.206
     29 H761      -11.0103   18.6135   26.5706 H         1 SUB1        0.110
     30 H771      -12.5846   16.7756   25.8161 H         1 SUB1        0.031
     31 H772      -11.1492   15.7321   25.5378 H         1 SUB1        0.031
     32 H773      -11.3565   17.2453   24.5923 H         1 SUB1        0.031
     33 H801      -12.1241   15.4924   27.4230 H         1 SUB1        0.189
     34 H811      -12.9805   16.3219   30.0105 H         1 SUB1        0.080
     35 H821      -14.0798   14.5670   28.3864 H         1 SUB1        0.034
     36 H831      -15.0092   13.3234   30.3142 H         1 SUB1        0.023
     37 H832      -14.8479   15.0806   30.6499 H         1 SUB1        0.023
     38 H833      -13.6558   13.9228   31.3319 H         1 SUB1        0.023
     39 H841      -12.1616   13.0576   28.0661 H         1 SUB1        0.023
     40 H842      -13.5699   12.2103   28.7910 H         1 SUB1        0.023
     41 H843      -12.1740   12.6756   29.8212 H         1 SUB1        0.023
     42 H871      -12.1904   16.0146   31.9623 H         1 SUB1        0.189
     43 H881      -10.0963   14.0658   32.6253 H         1 SUB1        0.082
     44 H891       -9.4101   16.6224   33.9468 H         1 SUB1        0.034
     45 H901       -7.9447   17.5461   32.2405 H         1 SUB1        0.023
     46 H902       -9.6407   17.6182   31.6532 H         1 SUB1        0.023
     47 H903       -8.5302   16.3476   31.0375 H         1 SUB1        0.023
     48 H911       -8.3010   14.3522   33.9820 H         1 SUB1        0.023
     49 H912       -7.1657   15.6279   33.4249 H         1 SUB1        0.023
     50 H913       -7.9359   14.5277   32.2320 H         1 SUB1        0.023
     51 H951      -12.8203   12.2893   34.4417 H         1 SUB1        0.058
     52 H952      -11.6773   12.7110   33.1218 H         1 SUB1        0.058
     53 H953      -13.2884   13.5014   33.2014 H         1 SUB1        0.058
     54 N1         -4.4280   16.7710   18.8980 N.4       1 SUB1        0.238
     55 C2         -4.3680   17.2180   20.3280 C.3       1 SUB1        0.062
     56 C3         -3.3620   18.3720   20.4750 C.3       1 SUB1       -0.004
     57 C4         -5.7600   17.7000   20.7290 C.2       1 SUB1        0.226
     58 O5         -6.2830   18.5900   20.0580 O.2       1 SUB1       -0.391
     59 N6         -6.3570   17.1560   21.7790 N.am      1 SUB1       -0.270
     60 C7         -7.6830   17.5640   22.2180 C.3       1 SUB1        0.064
     61 C8         -8.7050   16.7170   21.4720 C.3       1 SUB1       -0.033
     62 C9         -7.6940   17.3450   23.7270 C.2       1 SUB1       -0.051
     63 C10        -7.0530   18.2710   24.5480 C.2       1 SUB1       -0.096
     64 C11        -7.0060   18.1300   26.0900 C.3       1 SUB1        0.015
     65 C12        -5.8960   19.0210   26.6480 C.3       1 SUB1       -0.008
     66 C13        -4.6210   18.4400   26.0610 C.ar      1 SUB1       -0.041
     67 C14        -3.8370   19.2340   25.2190 C.ar      1 SUB1       -0.060
     68 C15        -2.7210   18.6870   24.5850 C.ar      1 SUB1       -0.069
     69 C16        -2.3980   17.3520   24.7890 C.ar      1 SUB1       -0.069
     70 C17        -3.1800   16.5660   25.6330 C.ar      1 SUB1       -0.069
     71 C18        -4.2900   17.0960   26.2770 C.ar      1 SUB1       -0.060
     72 C19        -8.3400   18.4400   26.7670 C.3       1 SUB1       -0.022
     73 C20        -8.3080   16.0710   24.2740 C.3       1 SUB1        0.014
     74 C21        -8.8420   16.1310   25.7390 C.3       1 SUB1       -0.021
     75 N22        -9.3220   17.4680   26.2090 N.4       1 SUB1        0.257
     76 C23       -10.7340   17.5520   26.6530 C.3       1 SUB1        0.066
     77 C24       -11.5120   16.7700   25.5720 C.3       1 SUB1       -0.004
     78 C25       -11.1870   17.1440   28.0890 C.2       1 SUB1        0.227
     79 O26       -10.8830   17.8630   29.0480 O.2       1 SUB1       -0.391
     80 N27       -11.9160   16.0210   28.2460 N.am      1 SUB1       -0.261
     81 C28       -12.4280   15.5100   29.5150 C.3       1 SUB1        0.133
     82 C29       -13.4480   14.3020   29.2470 C.3       1 SUB1       -0.006
     83 C30       -14.2960   14.1470   30.4660 C.3       1 SUB1       -0.058
     84 C31       -12.7940   12.9710   28.9620 C.3       1 SUB1       -0.058
     85 C32       -11.2970   15.0750   30.4500 C.2       1 SUB1        0.204
     86 O33       -10.3540   14.3820   30.0320 O.2       1 SUB1       -0.394
     87 N34       -11.4050   15.4490   31.7110 N.am      1 SUB1       -0.262
     88 C35       -10.4580   15.0950   32.7660 C.3       1 SUB1        0.145
     89 C37        -9.2350   16.0340   33.0340 C.3       1 SUB1       -0.005
     90 C38        -8.8090   16.9480   31.9160 C.3       1 SUB1       -0.058
     91 C39        -8.0810   15.0700   33.1780 C.3       1 SUB1       -0.058
     92 C40       -11.3900   15.2500   33.9910 C.2       1 SUB1        0.260
     93 O36       -12.0240   16.3120   34.1420 O.2       1 SUB1       -0.368
     94 O41       -11.8900   14.1670   34.6250 O.3       1 SUB1       -0.278
     95 C42       -12.4540   13.1010   33.7960 C.3       1 SUB1        0.066
@<TRIPOS>BOND
     1   54    1 1  
     2   54    2 1  
     3   54    3 1  
     4   55    4 1  
     5   56    5 1  
     6   56    6 1  
     7   56    7 1  
     8   59    8 1  
     9   60    9 1  
    10   61   10 1  
    11   61   11 1  
    12   61   12 1  
    13   63   13 1  
    14   64   14 1  
    15   65   15 1  
    16   65   16 1  
    17   67   17 1  
    18   68   18 1  
    19   69   19 1  
    20   70   20 1  
    21   71   21 1  
    22   72   22 1  
    23   72   23 1  
    24   73   24 1  
    25   73   25 1  
    26   74   26 1  
    27   74   27 1  
    28   75   28 1  
    29   76   29 1  
    30   77   30 1  
    31   77   31 1  
    32   77   32 1  
    33   80   33 1  
    34   81   34 1  
    35   82   35 1  
    36   83   36 1  
    37   83   37 1  
    38   83   38 1  
    39   84   39 1  
    40   84   40 1  
    41   84   41 1  
    42   87   42 1  
    43   88   43 1  
    44   89   44 1  
    45   90   45 1  
    46   90   46 1  
    47   90   47 1  
    48   91   48 1  
    49   91   49 1  
    50   91   50 1  
    51   95   51 1  
    52   95   52 1  
    53   95   53 1  
    54   55   54 1  
    55   55   56 1  
    56   57   55 1  
    57   57   58 2  
    58   59   57 am 
    59   60   59 1  
    60   60   61 1  
    61   62   60 1  
    62   62   63 2  
    63   73   62 1  
    64   64   63 1  
    65   64   65 1  
    66   72   64 1  
    67   65   66 1  
    68   66   67 ar 
    69   66   71 ar 
    70   67   68 ar 
    71   68   69 ar 
    72   70   69 ar 
    73   71   70 ar 
    74   75   72 1  
    75   74   73 1  
    76   75   74 1  
    77   76   75 1  
    78   76   77 1  
    79   78   76 1  
    80   78   79 2  
    81   80   78 am 
    82   81   80 1  
    83   81   82 1  
    84   85   81 1  
    85   82   83 1  
    86   82   84 1  
    87   85   86 2  
    88   87   85 am 
    89   88   87 1  
    90   88   89 1  
    91   92   88 1  
    92   89   90 1  
    93   89   91 1  
    94   92   93 2  
    95   94   92 1  
    96   94   95 1  
@<TRIPOS>SUBSTRUCTURE
     1 SUB1        1 GROUP

