3pcb_ligand
  -I-interpret- 

 15 15  0  0  0  0  0  0  0  0999 V2000
   16.3086   11.0132   39.5841 H   0  0  0  0  0
   12.8688    9.3498   41.5132 H   0  0  0  0  0
   12.3025   11.6083   42.4279 H   0  0  0  0  0
   13.6888   13.5742   41.8803 H   0  0  0  0  0
   16.0260   13.6040   40.3710 C   0  0  0  0  0
   17.0400   13.3720   39.6730 O   0  5  0  0  0
   15.8070   14.7550   40.7850 O   0  0  0  0  0
   15.1070   12.4240   40.7050 C   0  0  0  0  0
   15.4280   11.1420   40.2030 C   0  0  0  0  0
   14.6230   10.0410   40.4960 C   0  0  0  0  0
   13.5000   10.2010   41.2850 C   0  0  0  0  0
   13.1760   11.4900   41.7970 C   0  0  0  0  0
   13.9570   12.5940   41.5030 C   0  0  0  0  0
   14.9830    8.8250   39.9790 O   0  0  0  0  0
   14.3549    8.1671   40.2531 H   0  0  0  0  0
  9  1  1  0  0  0
 11  2  1  0  0  0
 12  3  1  0  0  0
  8  5  1  0  0  0
  5  7  2  0  0  0
  5  6  1  0  0  0
  8 13  4  0  0  0
  9  8  4  0  0  0
 10  9  4  0  0  0
 10 14  1  0  0  0
 11 10  4  0  0  0
 11 12  4  0  0  0
 12 13  4  0  0  0
 13  4  1  0  0  0
 14 15  1  0  0  0
M  END
$$$$
