### 
### Created by X-TOOL on Tue Oct 25 01:24:29 2005
### 

@<TRIPOS>MOLECULE
3pcb_ligand
   15    15     1     0     0
SMALL
GAST_HUCK


@<TRIPOS>ATOM
      1 H91        16.3086   11.0132   39.5841 H         1 SUB1        0.052
      2 H111       12.8688    9.3498   41.5132 H         1 SUB1        0.056
      3 H121       12.3025   11.6083   42.4279 H         1 SUB1        0.060
      4 H131       13.6888   13.5742   41.8803 H         1 SUB1        0.055
      5 C1'        16.0260   13.6040   40.3710 C.2       1 SUB1        0.068
      6 O1'        17.0400   13.3720   39.6730 O.co2     1 SUB1       -0.546
      7 O2'        15.8070   14.7550   40.7850 O.co2     1 SUB1       -0.546
      8 C1         15.1070   12.4240   40.7050 C.ar      1 SUB1       -0.013
      9 C2         15.4280   11.1420   40.2030 C.ar      1 SUB1       -0.027
     10 C3         14.6230   10.0410   40.4960 C.ar      1 SUB1        0.087
     11 C4         13.5000   10.2010   41.2850 C.ar      1 SUB1       -0.032
     12 C5         13.1760   11.4900   41.7970 C.ar      1 SUB1       -0.067
     13 C6         13.9570   12.5940   41.5030 C.ar      1 SUB1       -0.062
     14 O3         14.9830    8.8250   39.9790 O.3       1 SUB1       -0.334
     15 H141       14.3549    8.1671   40.2531 H         1 SUB1        0.248
@<TRIPOS>BOND
     1    9    1 1  
     2   11    2 1  
     3   12    3 1  
     4    8    5 1  
     5    5    7 2  
     6    5    6 2  
     7    8   13 ar 
     8    9    8 ar 
     9   10    9 ar 
    10   10   14 1  
    11   11   10 ar 
    12   11   12 ar 
    13   12   13 ar 
    14   13    4 1  
    15   14   15 1  
@<TRIPOS>SUBSTRUCTURE
     1 SUB1        1 GROUP

