### 
### Created by X-TOOL on Mon Oct 24 23:43:53 2005
### 

@<TRIPOS>MOLECULE
4er1_ligand
  127   132     1     0     0
SMALL
GAST_HUCK


@<TRIPOS>ATOM
      1 C           3.3700   29.0970   17.3370 C.2       1 SUB1        0.186
      2 O           3.2220   28.1590   16.5360 O.2       1 SUB1       -0.396
      3 CH          4.0370   28.8700   18.6880 C.3       1 SUB1        0.069
      4 ACM         3.8690   27.4850   19.1450 C.3       1 SUB1        0.005
      5 AC1         2.3400   27.2190   19.4680 C.ar      1 SUB1       -0.030
      6 AC2         1.4790   28.3200   19.5730 C.ar      1 SUB1       -0.061
      7 AC3         0.1180   28.1550   19.8270 C.ar      1 SUB1       -0.071
      8 AC4        -0.4120   26.8810   19.9770 C.ar      1 SUB1       -0.063
      9 AC4A        0.4190   25.7710   19.8720 C.ar      1 SUB1       -0.024
     10 AC5        -0.1390   24.5010   20.0400 C.ar      1 SUB1       -0.057
     11 AC6         0.6920   23.3770   19.9910 C.ar      1 SUB1       -0.063
     12 AC7         2.0610   23.5230   19.7340 C.ar      1 SUB1       -0.062
     13 AC8         2.6090   24.7970   19.5370 C.ar      1 SUB1       -0.055
     14 AC8A        1.7880   25.9270   19.6150 C.ar      1 SUB1       -0.012
     15 BCM         5.5310   29.1860   18.4440 C.3       1 SUB1        0.005
     16 BC1         6.4800   28.5800   19.4690 C.ar      1 SUB1       -0.030
     17 BC2         7.0100   27.3130   19.1990 C.ar      1 SUB1       -0.061
     18 BC3         7.8720   26.7120   20.0960 C.ar      1 SUB1       -0.071
     19 BC4         8.2060   27.3680   21.2590 C.ar      1 SUB1       -0.063
     20 BC4A        7.7010   28.6380   21.5590 C.ar      1 SUB1       -0.024
     21 BC5         8.0170   29.3460   22.7460 C.ar      1 SUB1       -0.057
     22 BC6         7.4600   30.6290   22.9630 C.ar      1 SUB1       -0.063
     23 BC7         6.6280   31.2250   22.0830 C.ar      1 SUB1       -0.062
     24 BC8         6.2810   30.5840   20.9100 C.ar      1 SUB1       -0.055
     25 BC8A        6.7930   29.3290   20.6460 C.ar      1 SUB1       -0.012
     26 N           2.9880   30.3470   17.1990 N.am      1 SUB1       -0.263
     27 CA          2.5080   30.9410   15.9480 C.3       1 SUB1        0.142
     28 C           3.2180   32.2710   15.7340 C.2       1 SUB1        0.204
     29 O           2.7840   33.3000   16.2810 O.2       1 SUB1       -0.394
     30 CB          1.1010   31.5170   15.9360 C.3       1 SUB1        0.043
     31 CG         -0.1290   30.6940   16.2880 C.2       1 SUB1        0.056
     32 ND1        -0.1240   29.3730   16.7380 N.pl3     1 SUB1       -0.262
     33 CD2        -1.4150   31.1070   16.2550 C.2       1 SUB1       -0.028
     34 CE1        -1.3990   29.0360   16.9760 C.2       1 SUB1        0.087
     35 NE2        -2.1750   30.0670   16.6930 N.2       1 SUB1       -0.344
     36 N           4.1920   32.2850   14.9390 N.am      1 SUB1       -0.279
     37 CA          5.0220   33.4600   14.6390 C.3       1 SUB1        0.068
     38 CB          6.5010   33.0720   14.7890 C.3       1 SUB1       -0.025
     39 CG          6.8090   32.4940   16.1800 C.3       1 SUB1       -0.039
     40 CD1         6.6550   33.6180   17.2190 C.3       1 SUB1       -0.050
     41 CD2         8.1100   31.9450   16.1970 C.3       1 SUB1       -0.050
     42 CE1         7.0080   33.1300   18.6240 C.3       1 SUB1       -0.053
     43 CE2         8.4780   31.4240   17.5950 C.3       1 SUB1       -0.053
     44 CZ          8.4130   32.5520   18.6160 C.3       1 SUB1       -0.053
     45 CH          4.6940   33.9640   13.2150 C.3       1 SUB1        0.080
     46 OH          5.2640   33.0830   12.2530 O.3       1 SUB1       -0.389
     47 CM          3.1570   34.0070   13.0160 C.3       1 SUB1       -0.005
     48 CA2         2.7270   35.1090   12.1030 C.3       1 SUB1        0.051
     49 CB2         1.2620   35.0630   11.9100 C.3       1 SUB1       -0.031
     50 CG2         0.9130   34.7720   10.4470 C.3       1 SUB1       -0.044
     51 CD3         0.8890   33.2610   10.2090 C.3       1 SUB1       -0.062
     52 CD4        -0.4680   35.3460   10.1130 C.3       1 SUB1       -0.062
     53 C           3.0120   36.2820   12.6290 C.2       1 SUB1        0.179
     54 O           2.5120   36.6230   13.7090 O.2       1 SUB1       -0.397
     55 N           3.8280   37.0190   11.9200 N.am      1 SUB1       -0.287
     56 CA          4.2820   38.3150   12.3940 C.3       1 SUB1        0.033
     57 CB          3.6260   39.4460   11.6220 C.3       1 SUB1       -0.024
     58 CG1         3.4910   40.7150   12.4610 C.3       1 SUB1       -0.052
     59 CG2         2.2200   39.1200   11.1240 C.3       1 SUB1       -0.061
     60 CD1         4.4400   41.8240   12.0150 C.3       1 SUB1       -0.065
     61 H261        3.0277   30.9357   18.0064 H         1 SUB1        0.188
     62 H271        2.6592   30.2248   15.1269 H         1 SUB1        0.082
     63 H301        0.9344   31.8914   14.9152 H         1 SUB1        0.049
     64 H302        1.1126   32.3626   16.6394 H         1 SUB1        0.049
     65 H321        0.7026   28.7714   16.8634 H         1 SUB1        0.239
     66 H331       -1.7744   32.0850   15.9384 H         1 SUB1        0.032
     67 H341       -1.7401   28.0691   17.3431 H         1 SUB1        0.115
     68 H31         3.6167   29.5523   19.4415 H         1 SUB1        0.059
     69 H41         4.4694   27.3225   20.0523 H         1 SUB1        0.047
     70 H42         4.2028   26.7951   18.3559 H         1 SUB1        0.047
     71 H61         1.8794   29.3203   19.4543 H         1 SUB1        0.053
     72 H71        -0.5269   29.0226   19.9074 H         1 SUB1        0.060
     73 H81        -1.4699   26.7518   20.1753 H         1 SUB1        0.054
     74 H101       -1.2042   24.3881   20.2065 H         1 SUB1        0.061
     75 H111        0.2750   22.3895   20.1525 H         1 SUB1        0.062
     76 H121        2.6984   22.6475   19.6874 H         1 SUB1        0.060
     77 H131        3.6663   24.9070   19.3247 H         1 SUB1        0.063
     78 H151        5.6585   30.2784   18.4615 H         1 SUB1        0.047
     79 H152        5.8060   28.8006   17.4511 H         1 SUB1        0.047
     80 H171        6.7429   26.8008   18.2817 H         1 SUB1        0.053
     81 H181        8.2823   25.7310   19.8854 H         1 SUB1        0.060
     82 H191        8.8781   26.8881   21.9611 H         1 SUB1        0.054
     83 H211        8.6808   28.9077   23.4824 H         1 SUB1        0.061
     84 H221        7.7127   31.1560   23.8759 H         1 SUB1        0.062
     85 H231        6.2307   32.2104   22.2978 H         1 SUB1        0.060
     86 H241        5.6127   31.0618   20.2028 H         1 SUB1        0.063
     87 H361        4.4197   31.4293   14.4743 H         1 SUB1        0.186
     88 H371        4.7922   34.2609   15.3572 H         1 SUB1        0.058
     89 H381        7.1203   33.9674   14.6319 H         1 SUB1        0.029
     90 H382        6.7485   32.3169   14.0284 H         1 SUB1        0.029
     91 H391        6.0879   31.6955   16.4088 H         1 SUB1        0.030
     92 H401        5.6129   33.9702   17.2137 H         1 SUB1        0.027
     93 H402        7.3242   34.4485   16.9499 H         1 SUB1        0.027
     94 H411        8.8308   32.7222   15.9031 H         1 SUB1        0.027
     95 H412        8.1567   31.1118   15.4804 H         1 SUB1        0.027
     96 H421        6.2930   32.3536   18.9339 H         1 SUB1        0.026
     97 H422        6.9616   33.9735   19.3285 H         1 SUB1        0.026
     98 H431        9.4986   31.0143   17.5721 H         1 SUB1        0.026
     99 H432        7.7714   30.6322   17.8843 H         1 SUB1        0.026
    100 H441        8.6566   32.1603   19.6146 H         1 SUB1        0.026
    101 H442        9.1336   33.3374   18.3444 H         1 SUB1        0.026
    102 H451        5.1097   34.9735   13.0803 H         1 SUB1        0.062
    103 H461        5.0606   33.3956   11.3793 H         1 SUB1        0.210
    104 H471        2.6788   34.1542   13.9956 H         1 SUB1        0.032
    105 H472        2.8300   33.0476   12.5887 H         1 SUB1        0.032
    106 H481        3.2374   34.9993   11.1348 H         1 SUB1        0.054
    107 H491        0.8301   36.0330   12.1973 H         1 SUB1        0.030
    108 H492        0.8395   34.2708   12.5456 H         1 SUB1        0.030
    109 H501        1.6691   35.2341    9.7952 H         1 SUB1        0.030
    110 H511        0.6379   33.0595    9.1572 H         1 SUB1        0.023
    111 H512        0.1334   32.7990   10.8613 H         1 SUB1        0.023
    112 H513        1.8784   32.8381   10.4373 H         1 SUB1        0.023
    113 H521       -0.4634   36.4332   10.2804 H         1 SUB1        0.023
    114 H522       -1.2255   34.8787   10.7594 H         1 SUB1        0.023
    115 H523       -0.7064   35.1382    9.0595 H         1 SUB1        0.023
    116 H551        4.1458   36.6832   11.0333 H         1 SUB1        0.185
    117 H561        5.3728   38.3806   12.2678 H         1 SUB1        0.052
    118 H562        4.0295   38.4152   13.4599 H         1 SUB1        0.052
    119 H571        4.2636   39.6612   10.7518 H         1 SUB1        0.032
    120 H581        3.7089   40.4672   13.5103 H         1 SUB1        0.027
    121 H582        2.4576   41.0826   12.3781 H         1 SUB1        0.027
    122 H591        2.2511   38.2088   10.5086 H         1 SUB1        0.023
    123 H592        1.8416   39.9577   10.5198 H         1 SUB1        0.023
    124 H593        1.5544   38.9586   11.9847 H         1 SUB1        0.023
    125 H601        4.2968   42.7080   12.6538 H         1 SUB1        0.023
    126 H602        4.2279   42.0894   10.9688 H         1 SUB1        0.023
    127 H603        5.4792   41.4740   12.1011 H         1 SUB1        0.023
@<TRIPOS>BOND
     1   26   27 1  
     2   27   30 1  
     3   27   28 1  
     4   28   29 2  
     5   30   31 1  
     6   31   32 1  
     7   31   33 2  
     8   33   35 1  
     9   35   34 2  
    10   32   34 1  
    11    1    2 2  
    12    1    3 1  
    13    1   26 am 
    14    3    4 1  
    15    3   15 1  
    16    4    5 1  
    17    5    6 ar 
    18    5   14 ar 
    19    6    7 ar 
    20    7    8 ar 
    21    8    9 ar 
    22    9   10 ar 
    23    9   14 ar 
    24   10   11 ar 
    25   11   12 ar 
    26   12   13 ar 
    27   13   14 ar 
    28   15   16 1  
    29   16   17 ar 
    30   16   25 ar 
    31   17   18 ar 
    32   18   19 ar 
    33   19   20 ar 
    34   20   21 ar 
    35   20   25 ar 
    36   21   22 ar 
    37   22   23 ar 
    38   23   24 ar 
    39   24   25 ar 
    40   28   36 am 
    41   36   37 1  
    42   37   38 1  
    43   37   45 1  
    44   38   39 1  
    45   39   40 1  
    46   39   41 1  
    47   40   42 1  
    48   41   43 1  
    49   42   44 1  
    50   43   44 1  
    51   45   46 1  
    52   45   47 1  
    53   47   48 1  
    54   48   49 1  
    55   48   53 1  
    56   49   50 1  
    57   50   51 1  
    58   50   52 1  
    59   53   54 2  
    60   53   55 am 
    61   55   56 1  
    62   56   57 1  
    63   57   58 1  
    64   57   59 1  
    65   58   60 1  
    66   26   61 1  
    67   27   62 1  
    68   30   63 1  
    69   30   64 1  
    70   32   65 1  
    71   33   66 1  
    72   34   67 1  
    73    3   68 1  
    74    4   69 1  
    75    4   70 1  
    76    6   71 1  
    77    7   72 1  
    78    8   73 1  
    79   10   74 1  
    80   11   75 1  
    81   12   76 1  
    82   13   77 1  
    83   15   78 1  
    84   15   79 1  
    85   17   80 1  
    86   18   81 1  
    87   19   82 1  
    88   21   83 1  
    89   22   84 1  
    90   23   85 1  
    91   24   86 1  
    92   36   87 1  
    93   37   88 1  
    94   38   89 1  
    95   38   90 1  
    96   39   91 1  
    97   40   92 1  
    98   40   93 1  
    99   41   94 1  
   100   41   95 1  
   101   42   96 1  
   102   42   97 1  
   103   43   98 1  
   104   43   99 1  
   105   44  100 1  
   106   44  101 1  
   107   45  102 1  
   108   46  103 1  
   109   47  104 1  
   110   47  105 1  
   111   48  106 1  
   112   49  107 1  
   113   49  108 1  
   114   50  109 1  
   115   51  110 1  
   116   51  111 1  
   117   51  112 1  
   118   52  113 1  
   119   52  114 1  
   120   52  115 1  
   121   55  116 1  
   122   56  117 1  
   123   56  118 1  
   124   57  119 1  
   125   58  120 1  
   126   58  121 1  
   127   59  122 1  
   128   59  123 1  
   129   59  124 1  
   130   60  125 1  
   131   60  126 1  
   132   60  127 1  
@<TRIPOS>SUBSTRUCTURE
     1 SUB1        1 GROUP

