### 
### Created by X-TOOL on Mon Oct 24 21:55:04 2005
### 

@<TRIPOS>MOLECULE
1gyy_ligand
   19    19     1     0     0
SMALL
GAST_HUCK


@<TRIPOS>ATOM
      1 C1         12.1640    2.4570   -4.4480 C.ar      1 SUB1       -0.034
      2 C7         12.4360    1.4470   -3.4280 C.2       1 SUB1       -0.028
      3 C8         13.4880    1.3100   -2.6160 C.2       1 SUB1        0.144
      4 C9         14.6510    2.1900   -2.5690 C.2       1 SUB1        0.085
      5 O3         15.7850    1.7830   -2.4520 O.co2     1 SUB1       -0.555
      6 O2         14.3920    3.5010   -2.7030 O.co2     1 SUB1       -0.555
      7 C6         13.1750    2.9500   -5.2850 C.ar      1 SUB1       -0.060
      8 C5         12.9230    3.8910   -6.2590 C.ar      1 SUB1       -0.029
      9 C4         11.6220    4.3610   -6.4280 C.ar      1 SUB1        0.094
     10 O1         11.3540    5.3150   -7.3740 O.3       1 SUB1       -0.329
     11 C3         10.6230    3.8720   -5.6120 C.ar      1 SUB1       -0.029
     12 C2         10.8590    2.9250   -4.6370 C.ar      1 SUB1       -0.060
     13 H21        11.6624    0.6894   -3.3117 H         1 SUB1        0.057
     14 H71        14.1862    2.5792   -5.1619 H         1 SUB1        0.060
     15 H81        13.7262    4.2611   -6.8858 H         1 SUB1        0.056
     16 H101       12.1535    5.5314   -7.8393 H         1 SUB1        0.252
     17 H111        9.6139    4.2462   -5.7419 H         1 SUB1        0.056
     18 H121       10.0458    2.5492   -4.0266 H         1 SUB1        0.060
     19 F1         13.5340    0.2590   -1.7540 F         1 SUB1       -0.186
@<TRIPOS>BOND
     1    1   12 ar 
     2    1    7 ar 
     3    1    2 1  
     4    2    3 2  
     5    3    4 1  
     6    4    6 2  
     7    4    5 2  
     8    7    8 ar 
     9    8    9 ar 
    10    9   11 ar 
    11    9   10 1  
    12   11   12 ar 
    13    3   19 1  
    14    2   13 1  
    15    7   14 1  
    16    8   15 1  
    17   10   16 1  
    18   11   17 1  
    19   12   18 1  
@<TRIPOS>SUBSTRUCTURE
     1 SUB1        1 GROUP

