### 
### Created by X-TOOL on Mon Oct 24 22:27:48 2005
### 

@<TRIPOS>MOLECULE
1afl_ligand
   42    44     1     0     0
SMALL
GAST_HUCK


@<TRIPOS>ATOM
      1 PB         37.2410   -2.7860   23.0660 P.3       1 SUB1        0.158
      2 O1B        37.8370   -2.2840   24.2990 O.co2     1 SUB1       -0.616
      3 O2B        35.7750   -2.8980   23.1260 O.co2     1 SUB1       -0.616
      4 O3B        37.8130   -2.1830   21.8570 O.co2     1 SUB1       -0.616
      5 PA         38.9650   -5.3250   22.7600 P.3       1 SUB1        0.372
      6 O1A        38.3980   -6.7290   22.7470 O.co2     1 SUB1       -0.457
      7 O2A        40.1970   -4.9690   23.6130 O.co2     1 SUB1       -0.457
      8 O3A        37.5640   -4.3250   22.9850 O.3       1 SUB1       -0.257
      9 O5'        39.2910   -5.0010   21.1570 O.3       1 SUB1       -0.253
     10 C5'        38.0080   -5.0480   20.5090 C.3       1 SUB1        0.111
     11 C4'        37.7680   -6.3040   19.8480 C.3       1 SUB1        0.120
     12 O4'        36.8740   -5.7220   18.9300 O.3       1 SUB1       -0.336
     13 C3'        38.9460   -7.0410   19.0570 C.3       1 SUB1        0.119
     14 O3'        39.5370   -8.2850   19.6940 O.3       1 SUB1       -0.386
     15 C2'        38.1080   -7.4720   17.8680 C.3       1 SUB1        0.160
     16 O2'        37.4760   -8.6980   18.1800 O.3       1 SUB1       -0.311
     17 P2'        36.7040   -9.4600   16.9420 P.3       1 SUB1        0.206
     18 O1P        35.5790   -8.5940   16.4960 O.co2     1 SUB1       -0.535
     19 O2P        37.7790   -9.6880   15.9180 O.co2     1 SUB1       -0.535
     20 O3P        36.3620  -10.5970   17.8500 O.co2     1 SUB1       -0.535
     21 C1'        36.9470   -6.4800   17.7560 C.3       1 SUB1        0.206
     22 N9         36.9050   -5.6480   16.4670 N.pl3     1 SUB1       -0.190
     23 C8         36.1340   -6.0340   15.3550 C.2       1 SUB1        0.110
     24 N7         36.0170   -5.1590   14.4050 N.2       1 SUB1       -0.301
     25 C5         36.7960   -4.0540   14.9090 C.2       1 SUB1        0.105
     26 C6         37.0430   -2.7400   14.3850 C.2       1 SUB1        0.125
     27 N6         36.6280   -2.3860   13.1430 N.pl3     1 SUB1       -0.313
     28 N1         37.7940   -1.8900   15.1790 N.2       1 SUB1       -0.274
     29 C2         38.2670   -2.3180   16.3460 C.2       1 SUB1        0.053
     30 N3         38.1250   -3.4940   16.9330 N.2       1 SUB1       -0.266
     31 C4         37.3540   -4.3430   16.1620 C.2       1 SUB1        0.163
     32 H101       37.9607   -4.2420   19.7619 H         1 SUB1        0.065
     33 H102       37.2250   -4.8929   21.2659 H         1 SUB1        0.065
     34 H111       37.2988   -7.0319   20.5263 H         1 SUB1        0.065
     35 H131       39.7561   -6.3443   18.7956 H         1 SUB1        0.065
     36 H141       38.8346   -8.8579   19.9787 H         1 SUB1        0.210
     37 H151       38.7069   -7.5316   16.9473 H         1 SUB1        0.073
     38 H211       36.0322   -7.0903   17.7285 H         1 SUB1        0.100
     39 H231       35.6616   -7.0134   15.2954 H         1 SUB1        0.131
     40 H271       36.8163   -1.4377   12.7879 H         1 SUB1        0.182
     41 H272       36.1245   -3.0655   12.5551 H         1 SUB1        0.182
     42 H291       38.8594   -1.5917   16.9005 H         1 SUB1        0.108
@<TRIPOS>BOND
     1    1    8 1  
     2    1    4 2  
     3    1    3 2  
     4    1    2 2  
     5    8    5 1  
     6    5    9 1  
     7    5    7 2  
     8    5    6 2  
     9    9   10 1  
    10   10   11 1  
    11   11   13 1  
    12   11   12 1  
    13   12   21 1  
    14   21   22 1  
    15   21   15 1  
    16   15   16 1  
    17   15   13 1  
    18   13   14 1  
    19   16   17 1  
    20   17   20 2  
    21   17   19 2  
    22   17   18 2  
    23   22   31 1  
    24   22   23 1  
    25   23   24 2  
    26   24   25 1  
    27   25   31 2  
    28   25   26 1  
    29   26   28 2  
    30   26   27 1  
    31   28   29 1  
    32   29   30 2  
    33   30   31 1  
    34   10   32 1  
    35   10   33 1  
    36   11   34 1  
    37   13   35 1  
    38   14   36 1  
    39   15   37 1  
    40   21   38 1  
    41   23   39 1  
    42   27   40 1  
    43   27   41 1  
    44   29   42 1  
@<TRIPOS>SUBSTRUCTURE
     1 SUB1        1 GROUP

