1oif_ligand
  -I-interpret- 

 23 23  0  0  0  0  0  0  0  0999 V2000
   -1.2450   10.9210    6.4200 O   0  0  0  0  0
   -0.8590   10.6970    7.7800 C   0  0  0  0  0
    0.0200   11.9210    8.2090 C   0  0  0  0  0
    1.1280   12.2160    7.3640 O   0  0  0  0  0
    0.4770   11.8650    9.6770 C   0  0  0  0  0
   -0.6170   11.5090   10.6020 N   0  0  0  0  0
   -1.4470   10.3550   10.1920 C   0  0  0  0  0
   -2.0480   10.5600    8.7840 C   0  0  0  0  0
   -2.9910    9.3730    8.4930 C   0  0  0  0  0
   -2.2870    8.1680    8.8340 O   0  0  0  0  0
   -0.4676   10.9849    5.8778 H   0  0  0  0  0
   -0.2711    9.7690    7.8364 H   0  0  0  0  0
   -0.6478   12.7928    8.1460 H   0  0  0  0  0
    0.8145   12.4080    6.4880 H   0  0  0  0  0
    1.2684   11.1076    9.7773 H   0  0  0  0  0
    0.8635   12.8523    9.9699 H   0  0  0  0  0
   -0.1852   11.2702   11.5626 H   0  0  0  0  0
   -0.8253    9.4478   10.1746 H   0  0  0  0  0
   -2.2737   10.2294   10.9066 H   0  0  0  0  0
   -2.6486   11.4811    8.7560 H   0  0  0  0  0
   -3.9013    9.4496    9.1057 H   0  0  0  0  0
   -3.2579    9.3502    7.4261 H   0  0  0  0  0
   -2.8449    7.4179    8.6647 H   0  0  0  0  0
  1  2  1  0  0  0
  2  3  1  0  0  0
  2  8  1  0  0  0
  3  4  1  0  0  0
  3  5  1  0  0  0
  5  6  1  0  0  0
  6  7  1  0  0  0
  7  8  1  0  0  0
  8  9  1  0  0  0
  9 10  1  0  0  0
  1 11  1  0  0  0
  2 12  1  0  0  0
  3 13  1  0  0  0
  4 14  1  0  0  0
  5 15  1  0  0  0
  5 16  1  0  0  0
  6 17  1  0  0  0
  7 18  1  0  0  0
  7 19  1  0  0  0
  8 20  1  0  0  0
  9 21  1  0  0  0
  9 22  1  0  0  0
 10 23  1  0  0  0
M  END
$$$$
