### 
### Created by X-TOOL on Tue Oct 25 01:00:20 2005
### 

@<TRIPOS>MOLECULE
1oif_ligand
   23    23     1     0     0
SMALL
GAST_HUCK


@<TRIPOS>ATOM
      1 O4         -1.2450   10.9210    6.4200 O.3       1 SUB1       -0.389
      2 C4         -0.8590   10.6970    7.7800 C.3       1 SUB1        0.088
      3 C3          0.0200   11.9210    8.2090 C.3       1 SUB1        0.094
      4 O3          1.1280   12.2160    7.3640 O.3       1 SUB1       -0.388
      5 C2          0.4770   11.8650    9.6770 C.3       1 SUB1        0.024
      6 N          -0.6170   11.5090   10.6020 N.3       1 SUB1       -0.313
      7 C1         -1.4470   10.3550   10.1920 C.3       1 SUB1        0.003
      8 C5         -2.0480   10.5600    8.7840 C.3       1 SUB1        0.023
      9 C6         -2.9910    9.3730    8.4930 C.3       1 SUB1        0.051
     10 O6         -2.2870    8.1680    8.8340 O.3       1 SUB1       -0.395
     11 H11        -0.4676   10.9849    5.8778 H         1 SUB1        0.210
     12 H21        -0.2711    9.7690    7.8364 H         1 SUB1        0.062
     13 H31        -0.6478   12.7928    8.1460 H         1 SUB1        0.063
     14 H41         0.8145   12.4080    6.4880 H         1 SUB1        0.210
     15 H51         1.2684   11.1076    9.7773 H         1 SUB1        0.045
     16 H52         0.8635   12.8523    9.9699 H         1 SUB1        0.045
     17 H61        -0.1852   11.2702   11.5626 H         1 SUB1        0.122
     18 H71        -0.8253    9.4478   10.1746 H         1 SUB1        0.043
     19 H72        -2.2737   10.2294   10.9066 H         1 SUB1        0.043
     20 H81        -2.6486   11.4811    8.7560 H         1 SUB1        0.036
     21 H91        -3.9013    9.4496    9.1057 H         1 SUB1        0.056
     22 H92        -3.2579    9.3502    7.4261 H         1 SUB1        0.056
     23 H101       -2.8449    7.4179    8.6647 H         1 SUB1        0.209
@<TRIPOS>BOND
     1    1    2 1  
     2    2    3 1  
     3    2    8 1  
     4    3    4 1  
     5    3    5 1  
     6    5    6 1  
     7    6    7 1  
     8    7    8 1  
     9    8    9 1  
    10    9   10 1  
    11    1   11 1  
    12    2   12 1  
    13    3   13 1  
    14    4   14 1  
    15    5   15 1  
    16    5   16 1  
    17    6   17 1  
    18    7   18 1  
    19    7   19 1  
    20    8   20 1  
    21    9   21 1  
    22    9   22 1  
    23   10   23 1  
@<TRIPOS>SUBSTRUCTURE
     1 SUB1        1 GROUP

