### 
### Created by X-TOOL on Mon Oct 24 23:06:12 2005
### 

@<TRIPOS>MOLECULE
1d7i_ligand
   14    13     1     0     0
SMALL
GAST_HUCK


@<TRIPOS>ATOM
      1 H111       60.1595   -6.6419   -2.2563 H         1 SUB1        0.036
      2 H112       60.0887   -4.8611   -2.4805 H         1 SUB1        0.036
      3 H113       58.7496   -5.7146   -1.6409 H         1 SUB1        0.036
      4 H121       60.2261   -3.7041    1.2018 H         1 SUB1        0.051
      5 H122       58.8674   -4.0421    0.0766 H         1 SUB1        0.051
      6 H141       60.3133   -0.2455   -0.2751 H         1 SUB1        0.034
      7 H142       60.5985   -1.2858    1.1613 H         1 SUB1        0.034
      8 H143       58.9682   -1.2192    0.4099 H         1 SUB1        0.034
      9 S          60.6710   -5.4620   -0.2410 S.o       1 SUB1        0.029
     10 O          60.1490   -6.4880    0.7290 O.2       1 SUB1       -0.257
     11 C1         59.8370   -5.6920   -1.8050 C.3       1 SUB1        0.013
     12 C2         59.9600   -3.9490    0.1630 C.3       1 SUB1        0.069
     13 S3         60.5040   -2.6040   -0.8980 S.3       1 SUB1       -0.151
     14 C4         60.0500   -1.1960    0.2120 C.3       1 SUB1       -0.017
@<TRIPOS>BOND
     1   11    1 1  
     2   11    2 1  
     3   11    3 1  
     4   12    4 1  
     5   12    5 1  
     6   14    6 1  
     7   14    7 1  
     8   14    8 1  
     9   12    9 1  
    10    9   11 1  
    11    9   10 2  
    12   13   12 1  
    13   13   14 1  
@<TRIPOS>SUBSTRUCTURE
     1 SUB1        1 GROUP

