1d7i_ligand
  -I-interpret- 

 14 13  0  0  0  0  0  0  0  0999 V2000
   60.1595   -6.6419   -2.2563 H   0  0  0  0  0
   60.0887   -4.8611   -2.4805 H   0  0  0  0  0
   58.7496   -5.7146   -1.6409 H   0  0  0  0  0
   60.2261   -3.7041    1.2018 H   0  0  0  0  0
   58.8674   -4.0421    0.0766 H   0  0  0  0  0
   60.3133   -0.2455   -0.2751 H   0  0  0  0  0
   60.5985   -1.2858    1.1613 H   0  0  0  0  0
   58.9682   -1.2192    0.4099 H   0  0  0  0  0
   60.6710   -5.4620   -0.2410 S   0  0  0  0  0
   60.1490   -6.4880    0.7290 O   0  0  0  0  0
   59.8370   -5.6920   -1.8050 C   0  0  0  0  0
   59.9600   -3.9490    0.1630 C   0  0  0  0  0
   60.5040   -2.6040   -0.8980 S   0  0  0  0  0
   60.0500   -1.1960    0.2120 C   0  0  0  0  0
 11  1  1  0  0  0
 11  2  1  0  0  0
 11  3  1  0  0  0
 12  4  1  0  0  0
 12  5  1  0  0  0
 14  6  1  0  0  0
 14  7  1  0  0  0
 14  8  1  0  0  0
 12  9  1  0  0  0
  9 11  1  0  0  0
  9 10  2  0  0  0
 13 12  1  0  0  0
 13 14  1  0  0  0
M  END
$$$$
