### 
### Created by X-TOOL on Tue Oct 25 00:13:04 2005
### 

@<TRIPOS>MOLECULE
1d3d_ligand
   75    80     1     0     0
SMALL
GAST_HUCK


@<TRIPOS>ATOM
      1 C1        -24.0350  -30.4500   24.2640 C.ar      1 SUB1        0.081
      2 C2        -24.3170  -31.5200   23.3160 C.ar      1 SUB1       -0.021
      3 C3        -23.4150  -31.8990   22.2780 C.ar      1 SUB1        0.027
      4 C4        -22.1640  -31.2090   22.1440 C.ar      1 SUB1       -0.023
      5 C5        -21.8720  -30.1510   23.0670 C.ar      1 SUB1       -0.070
      6 C6        -22.7970  -29.7740   24.1230 C.ar      1 SUB1       -0.040
      7 S1        -23.5320  -33.1090   21.0650 S.3       1 SUB1       -0.053
      8 C8        -22.0620  -32.7980   20.3770 C.2       1 SUB1        0.025
      9 C9        -21.3850  -31.7250   21.0720 C.2       1 SUB1       -0.030
     10 C7        -19.9710  -31.4780   20.7020 C.3       1 SUB1        0.003
     11 C10       -21.5630  -33.5970   19.2000 C.ar      1 SUB1       -0.029
     12 C12       -20.9090  -33.0210   18.0190 C.ar      1 SUB1       -0.066
     13 C14       -20.4460  -33.8360   16.9690 C.ar      1 SUB1       -0.035
     14 C16       -20.5930  -35.2450   17.0130 C.ar      1 SUB1        0.090
     15 C18       -21.2520  -35.8150   18.1900 C.ar      1 SUB1       -0.035
     16 C20       -21.7360  -35.0190   19.2830 C.ar      1 SUB1       -0.066
     17 O2        -20.0690  -35.9550   15.8820 O.3       1 SUB1       -0.314
     18 C24       -20.1990  -37.4370   15.8820 C.3       1 SUB1        0.110
     19 C11       -19.0980  -33.6610   21.9920 C.ar      1 SUB1       -0.062
     20 C13       -18.8100  -32.5210   21.1830 C.ar      1 SUB1       -0.038
     21 C15       -17.4520  -32.3350   20.7780 C.ar      1 SUB1       -0.055
     22 C32       -16.4170  -33.2730   21.1780 C.ar      1 SUB1        0.013
     23 C19       -16.7000  -34.4010   21.9880 C.ar      1 SUB1        0.004
     24 C21       -18.0690  -34.5420   22.3680 C.ar      1 SUB1       -0.059
     25 BR1       -14.7860  -32.8190   20.5240 Br        1 SUB1       -0.058
     26 C31       -15.6910  -35.4540   22.4810 C.3       1 SUB1        0.000
     27 C17       -14.2590  -35.6570   25.9730 C.3       1 SUB1       -0.008
     28 C23       -14.4620  -34.1290   25.8850 C.3       1 SUB1       -0.008
     29 C26       -14.6010  -34.0250   24.3150 C.3       1 SUB1       -0.030
     30 N2        -15.2820  -35.3250   23.8710 N.4       1 SUB1        0.247
     31 C27       -14.3020  -36.2570   24.5330 C.3       1 SUB1       -0.030
     32 C22       -17.3350  -38.2190   13.5550 C.3       1 SUB1       -0.032
     33 N3        -18.1380  -38.5400   14.7330 N.4       1 SUB1        0.237
     34 C28       -17.8940  -39.9830   14.8510 C.3       1 SUB1       -0.032
     35 C29       -16.3620  -39.9680   14.9020 C.3       1 SUB1       -0.008
     36 C30       -15.9450  -38.7570   14.0180 C.3       1 SUB1       -0.008
     37 C34       -19.6010  -38.1560   14.6320 C.3       1 SUB1       -0.003
     38 O1        -24.8940  -30.0890   25.2580 O.3       1 SUB1       -0.336
     39 H21       -25.2567  -32.0532   23.4037 H         1 SUB1        0.049
     40 H51       -20.9335  -29.6165   22.9744 H         1 SUB1        0.056
     41 H61       -22.5390  -28.9724   24.8057 H         1 SUB1        0.050
     42 H101      -19.7026  -30.4927   21.1108 H         1 SUB1        0.054
     43 H102      -19.9312  -31.4424   19.6033 H         1 SUB1        0.054
     44 H121      -20.7800  -31.9467   17.9541 H         1 SUB1        0.056
     45 H131      -19.9681  -33.3776   16.1108 H         1 SUB1        0.054
     46 H151      -21.3808  -36.8902   18.2386 H         1 SUB1        0.054
     47 H161      -22.2154  -35.4765   20.1409 H         1 SUB1        0.056
     48 H181      -21.2692  -37.6849   15.9377 H         1 SUB1        0.067
     49 H182      -19.6861  -37.8238   16.7749 H         1 SUB1        0.067
     50 H191      -20.1147  -33.8484   22.3180 H         1 SUB1        0.057
     51 H211      -17.1903  -31.4814   20.1632 H         1 SUB1        0.057
     52 H241      -18.3339  -35.3887   22.9908 H         1 SUB1        0.055
     53 H261      -14.7901  -35.3801   21.8542 H         1 SUB1        0.097
     54 H262      -16.1468  -36.4468   22.3524 H         1 SUB1        0.097
     55 H271      -15.0600  -36.1014   26.5821 H         1 SUB1        0.032
     56 H272      -13.2843  -35.8740   26.4343 H         1 SUB1        0.032
     57 H281      -15.3710  -33.7973   26.4081 H         1 SUB1        0.032
     58 H282      -13.5949  -33.5695   26.2659 H         1 SUB1        0.032
     59 H291      -15.2178  -33.1563   24.0415 H         1 SUB1        0.082
     60 H292      -13.6095  -33.9325   23.8477 H         1 SUB1        0.082
     61 H311      -13.3153  -36.2185   24.0483 H         1 SUB1        0.082
     62 H312      -14.6684  -37.2942   24.5370 H         1 SUB1        0.082
     63 H321      -17.3095  -37.1365   13.3612 H         1 SUB1        0.081
     64 H322      -17.6976  -38.7436   12.6587 H         1 SUB1        0.081
     65 H341      -18.2715  -40.5372   13.9790 H         1 SUB1        0.081
     66 H342      -18.3325  -40.4011   15.7691 H         1 SUB1        0.081
     67 H351      -16.0103  -39.8324   15.9354 H         1 SUB1        0.032
     68 H352      -15.9519  -40.9040   14.4949 H         1 SUB1        0.032
     69 H361      -15.3961  -38.0033   14.6016 H         1 SUB1        0.032
     70 H362      -15.3319  -39.0761   13.1623 H         1 SUB1        0.032
     71 H371      -19.7154  -37.4842   13.7685 H         1 SUB1        0.084
     72 H372      -20.1807  -39.0750   14.4609 H         1 SUB1        0.084
     73 H381      -25.6713  -30.6337   25.2167 H         1 SUB1        0.248
     74 H301      -16.1528  -35.4083   24.3718 H         1 SUB1        0.205
     75 H331      -17.7628  -38.0644   15.5387 H         1 SUB1        0.203
@<TRIPOS>BOND
     1    1   38 1  
     2    1    6 ar 
     3    1    2 ar 
     4    2    3 ar 
     5    3    7 1  
     6    3    4 ar 
     7    4    9 1  
     8    4    5 ar 
     9    5    6 ar 
    10    9   10 1  
    11    9    8 2  
    12    8   11 1  
    13    8    7 1  
    14   11   16 ar 
    15   11   12 ar 
    16   12   13 ar 
    17   13   14 ar 
    18   14   17 1  
    19   14   15 ar 
    20   15   16 ar 
    21   17   18 1  
    22   18   37 1  
    23   37   33 1  
    24   33   34 1  
    25   33   32 1  
    26   32   36 1  
    27   36   35 1  
    28   35   34 1  
    29   10   20 1  
    30   20   19 ar 
    31   20   21 ar 
    32   21   22 ar 
    33   22   25 1  
    34   22   23 ar 
    35   23   26 1  
    36   23   24 ar 
    37   24   19 ar 
    38   26   30 1  
    39   30   31 1  
    40   30   29 1  
    41   29   28 1  
    42   28   27 1  
    43   27   31 1  
    44    2   39 1  
    45    5   40 1  
    46    6   41 1  
    47   10   42 1  
    48   10   43 1  
    49   12   44 1  
    50   13   45 1  
    51   15   46 1  
    52   16   47 1  
    53   18   48 1  
    54   18   49 1  
    55   19   50 1  
    56   21   51 1  
    57   24   52 1  
    58   26   53 1  
    59   26   54 1  
    60   27   55 1  
    61   27   56 1  
    62   28   57 1  
    63   28   58 1  
    64   29   59 1  
    65   29   60 1  
    66   31   61 1  
    67   31   62 1  
    68   32   63 1  
    69   32   64 1  
    70   34   65 1  
    71   34   66 1  
    72   35   67 1  
    73   35   68 1  
    74   36   69 1  
    75   36   70 1  
    76   37   71 1  
    77   37   72 1  
    78   38   73 1  
    79   30   74 1  
    80   33   75 1  
@<TRIPOS>SUBSTRUCTURE
     1 SUB1        1 GROUP

