1fzk_ligand
  -I-interpret- 

132135  0  0  0  0  0  0  0  0999 V2000
   49.8640   56.5120    4.9650 N   0  3  0  0  0
   49.0430   57.6520    4.4610 C   0  0  0  0  0
   48.5200   57.2540    3.0820 C   0  0  0  0  0
   49.2850   57.1580    2.1260 O   0  0  0  0  0
   49.9230   58.8970    4.3590 C   0  0  0  0  0
   49.1640   60.1900    4.3470 C   0  0  0  0  0
   48.6860   60.7400    5.5280 C   0  0  0  0  0
   48.9660   60.8820    3.1590 C   0  0  0  0  0
   48.0300   61.9710    5.5270 C   0  0  0  0  0
   48.3130   62.1120    3.1460 C   0  0  0  0  0
   47.8440   62.6550    4.3340 C   0  0  0  0  0
   47.2140   57.0330    2.9870 N   0  0  0  0  0
   46.5830   56.5950    1.7430 C   0  0  0  0  0
   46.4910   57.6250    0.6180 C   0  0  0  0  0
   46.4970   58.8320    0.8630 O   0  0  0  0  0
   45.1850   56.0640    2.0570 C   0  0  0  0  0
   46.4260   57.1520   -0.6420 N   0  0  0  0  0
   46.3180   58.0500   -1.7960 C   0  0  0  0  0
   45.0710   58.9120   -1.5810 C   0  0  0  0  0
   44.0420   58.4140   -1.1100 O   0  0  0  0  0
   46.1570   57.0850   -2.9650 C   0  0  0  0  0
   46.9830   55.9180   -2.5420 C   0  0  0  0  0
   46.6120   55.7550   -1.0790 C   0  0  0  0  0
   45.1620   60.1890   -1.9420 N   0  0  0  0  0
   44.0520   61.1020   -1.7290 C   0  0  0  0  0
   42.9710   61.3220   -2.7730 C   0  0  0  0  0
   41.8270   61.5740   -2.3950 O   0  0  0  0  0
   43.2910   61.2540   -4.0610 N   0  0  0  0  0
   42.2590   61.4860   -5.0750 C   0  0  0  0  0
   42.4150   60.6310   -6.3310 C   0  0  0  0  0
   43.1650   60.9700   -7.2490 O   0  0  0  0  0
   42.2070   62.9830   -5.4480 C   0  0  0  0  0
   43.3020   63.4020   -6.4200 C   0  0  0  0  0
   43.1790   63.2130   -7.6320 O   0  0  0  0  0
   44.3790   63.9740   -5.8910 N   0  0  0  0  0
   41.7050   59.5090   -6.3680 N   0  0  0  0  0
   41.7780   58.6360   -7.5300 C   0  0  0  0  0
   40.9910   59.2830   -8.6630 C   0  0  0  0  0
   39.7750   59.4520   -8.5610 O   0  0  0  0  0
   41.1860   57.2580   -7.2230 C   0  0  0  0  0
   41.9370   56.4560   -6.1770 C   0  0  0  0  0
   41.6350   56.5810   -4.8210 C   0  0  0  0  0
   42.9270   55.5420   -6.5500 C   0  0  0  0  0
   42.2940   55.8060   -3.8630 C   0  0  0  0  0
   43.5930   54.7690   -5.6010 C   0  0  0  0  0
   43.2690   54.9040   -4.2580 C   0  0  0  0  0
   43.9110   54.1310   -3.3070 O   0  0  0  0  0
   41.6760   59.6550   -9.7580 N   0  0  0  0  0
   41.0060   60.2870  -10.9000 C   0  0  0  0  0
   39.9180   59.3760  -11.4560 C   0  0  0  0  0
   40.0930   58.1600  -11.5020 O   0  0  0  0  0
   42.1480   60.5040  -11.8880 C   0  0  0  0  0
   43.0640   59.3450  -11.5890 C   0  0  0  0  0
   43.0800   59.3500  -10.0810 C   0  0  0  0  0
   38.8000   59.9600  -11.8780 N   0  0  0  0  0
   37.6950   59.1750  -12.4190 C   0  0  0  0  0
   38.1050   58.5230  -13.7350 C   0  0  0  0  0
   38.8430   59.1160  -14.5200 O   0  0  0  0  0
   36.4720   60.0710  -12.6350 C   0  0  0  0  0
   37.6300   57.3030  -13.9720 N   0  0  0  0  0
   37.9570   56.5930  -15.2060 C   0  0  0  0  0
   37.2290   57.1890  -16.4110 C   0  0  0  0  0
   36.2890   57.9920  -16.1990 O   0  0  0  0  0
   37.5870   55.1100  -15.0800 C   0  0  0  0  0
   38.2890   54.3190  -13.9780 C   0  0  0  0  0
   37.8050   52.8700  -14.0090 C   0  0  0  0  0
   39.7870   54.3730  -14.1780 C   0  0  0  0  0
   37.5970   56.8290  -17.5560 O   0  5  0  0  0
   49.8454   55.7614    4.2925 H   0  0  0  0  0
   48.2017   57.8478    5.1420 H   0  0  0  0  0
   50.5062   58.8313    3.4287 H   0  0  0  0  0
   50.6069   58.9070    5.2205 H   0  0  0  0  0
   48.8240   60.2070    6.4618 H   0  0  0  0  0
   49.3251   60.4583    2.2281 H   0  0  0  0  0
   47.6660   62.3928    6.4569 H   0  0  0  0  0
   48.1716   62.6432    2.2117 H   0  0  0  0  0
   47.3335   63.6113    4.3300 H   0  0  0  0  0
   46.6416   57.1711    3.7953 H   0  0  0  0  0
   47.1887   55.7614    1.3579 H   0  0  0  0  0
   44.5845   56.8623    2.5175 H   0  0  0  0  0
   45.2627   55.2158    2.7531 H   0  0  0  0  0
   44.7014   55.7316    1.1266 H   0  0  0  0  0
   47.2085   58.6838   -1.9195 H   0  0  0  0  0
   46.5397   57.5245   -3.8979 H   0  0  0  0  0
   45.1039   56.7976   -3.1001 H   0  0  0  0  0
   48.0562   56.1298   -2.6572 H   0  0  0  0  0
   46.7228   55.0185   -3.1192 H   0  0  0  0  0
   47.4203   55.2660   -0.5155 H   0  0  0  0  0
   45.6838   55.1757   -0.9659 H   0  0  0  0  0
   46.0039   60.5244   -2.3648 H   0  0  0  0  0
   43.5363   60.7514   -0.8229 H   0  0  0  0  0
   44.4990   62.0887   -1.5379 H   0  0  0  0  0
   44.2296   61.0459   -4.3363 H   0  0  0  0  0
   41.2937   61.2184   -4.6206 H   0  0  0  0  0
   42.3124   63.5757   -4.5274 H   0  0  0  0  0
   41.2312   63.1937   -5.9100 H   0  0  0  0  0
   44.4386   64.1090   -4.9019 H   0  0  0  0  0
   45.1296   64.2693   -6.4821 H   0  0  0  0  0
   41.1190   59.2637   -5.5957 H   0  0  0  0  0
   42.8295   58.5171   -7.8303 H   0  0  0  0  0
   41.1749   56.6758   -8.1562 H   0  0  0  0  0
   40.1548   57.4010   -6.8678 H   0  0  0  0  0
   40.8779   57.2898   -4.5057 H   0  0  0  0  0
   43.1815   55.4325   -7.5980 H   0  0  0  0  0
   42.0432   55.9101   -2.8136 H   0  0  0  0  0
   44.3591   54.0669   -5.9095 H   0  0  0  0  0
   44.5463   53.5684   -3.7341 H   0  0  0  0  0
   40.5568   61.2485  -10.6106 H   0  0  0  0  0
   42.6518   61.4652  -11.7082 H   0  0  0  0  0
   41.7873   60.4678  -12.9265 H   0  0  0  0  0
   44.0700   59.5121  -12.0013 H   0  0  0  0  0
   42.6585   58.4013  -11.9827 H   0  0  0  0  0
   43.7566   60.1249   -9.6915 H   0  0  0  0  0
   43.3775   58.3692   -9.6817 H   0  0  0  0  0
   38.7151   60.9549  -11.8236 H   0  0  0  0  0
   37.4345   58.3858  -11.6984 H   0  0  0  0  0
   36.7261   60.8738  -13.3428 H   0  0  0  0  0
   36.1663   60.5120  -11.6748 H   0  0  0  0  0
   35.6451   59.4709  -13.0426 H   0  0  0  0  0
   37.0395   56.8649  -13.2943 H   0  0  0  0  0
   39.0407   56.6756  -15.3756 H   0  0  0  0  0
   37.8215   54.6253  -16.0392 H   0  0  0  0  0
   36.5044   55.0512  -14.8945 H   0  0  0  0  0
   38.0415   54.7612  -13.0017 H   0  0  0  0  0
   36.7191   52.8424  -13.8354 H   0  0  0  0  0
   38.3167   52.2956  -13.2228 H   0  0  0  0  0
   38.0307   52.4289  -14.9911 H   0  0  0  0  0
   40.0433   53.9281  -15.1508 H   0  0  0  0  0
   40.2847   53.8098  -13.3748 H   0  0  0  0  0
   40.1227   55.4202  -14.1538 H   0  0  0  0  0
   49.4862   56.1874    5.8413 H   0  0  0  0  0
   50.8149   56.8173    5.1016 H   0  0  0  0  0
  3  2  1  0  0  0
  2  5  1  0  0  0
  2  1  1  0  0  0
  5  6  1  0  0  0
  6  8  4  0  0  0
  6  7  4  0  0  0
  7  9  4  0  0  0
  9 11  4  0  0  0
 10 11  4  0  0  0
  8 10  4  0  0  0
  3  4  2  0  0  0
 14 13  1  0  0  0
 13 16  1  0  0  0
 13 12  1  0  0  0
 14 15  2  0  0  0
 18 17  1  0  0  0
 18 21  1  0  0  0
 19 18  1  0  0  0
 19 20  2  0  0  0
 21 22  1  0  0  0
 22 23  1  0  0  0
 17 23  1  0  0  0
 26 25  1  0  0  0
 25 24  1  0  0  0
 26 27  2  0  0  0
 30 29  1  0  0  0
 29 32  1  0  0  0
 29 28  1  0  0  0
 32 33  1  0  0  0
 33 34  2  0  0  0
 33 35  1  0  0  0
 30 31  2  0  0  0
 38 37  1  0  0  0
 37 40  1  0  0  0
 37 36  1  0  0  0
 40 41  1  0  0  0
 41 43  4  0  0  0
 41 42  4  0  0  0
 42 44  4  0  0  0
 44 46  4  0  0  0
 46 47  1  0  0  0
 45 46  4  0  0  0
 43 45  4  0  0  0
 38 39  2  0  0  0
 49 48  1  0  0  0
 49 52  1  0  0  0
 50 49  1  0  0  0
 50 51  2  0  0  0
 52 53  1  0  0  0
 53 54  1  0  0  0
 48 54  1  0  0  0
 57 56  1  0  0  0
 56 59  1  0  0  0
 56 55  1  0  0  0
 57 58  2  0  0  0
 61 62  1  0  0  0
 61 64  1  0  0  0
 60 61  1  0  0  0
 64 65  1  0  0  0
 65 67  1  0  0  0
 65 66  1  0  0  0
 62 68  1  0  0  0
 62 63  2  0  0  0
 12  3  1  0  0  0
 17 14  1  0  0  0
 24 19  1  0  0  0
 28 26  1  0  0  0
 36 30  1  0  0  0
 48 38  1  0  0  0
 55 50  1  0  0  0
 57 60  1  0  0  0
  1 69  1  0  0  0
  2 70  1  0  0  0
  5 71  1  0  0  0
  5 72  1  0  0  0
  7 73  1  0  0  0
  8 74  1  0  0  0
  9 75  1  0  0  0
 10 76  1  0  0  0
 11 77  1  0  0  0
 12 78  1  0  0  0
 13 79  1  0  0  0
 16 80  1  0  0  0
 16 81  1  0  0  0
 16 82  1  0  0  0
 18 83  1  0  0  0
 21 84  1  0  0  0
 21 85  1  0  0  0
 22 86  1  0  0  0
 22 87  1  0  0  0
 23 88  1  0  0  0
 23 89  1  0  0  0
 24 90  1  0  0  0
 25 91  1  0  0  0
 25 92  1  0  0  0
 28 93  1  0  0  0
 29 94  1  0  0  0
 32 95  1  0  0  0
 32 96  1  0  0  0
 35 97  1  0  0  0
 35 98  1  0  0  0
 36 99  1  0  0  0
 37100  1  0  0  0
 40101  1  0  0  0
 40102  1  0  0  0
 42103  1  0  0  0
 43104  1  0  0  0
 44105  1  0  0  0
 45106  1  0  0  0
 47107  1  0  0  0
 49108  1  0  0  0
 52109  1  0  0  0
 52110  1  0  0  0
 53111  1  0  0  0
 53112  1  0  0  0
 54113  1  0  0  0
 54114  1  0  0  0
 55115  1  0  0  0
 56116  1  0  0  0
 59117  1  0  0  0
 59118  1  0  0  0
 59119  1  0  0  0
 60120  1  0  0  0
 61121  1  0  0  0
 64122  1  0  0  0
 64123  1  0  0  0
 65124  1  0  0  0
 66125  1  0  0  0
 66126  1  0  0  0
 66127  1  0  0  0
 67128  1  0  0  0
 67129  1  0  0  0
 67130  1  0  0  0
  1131  1  0  0  0
  1132  1  0  0  0
M  END
$$$$
