### 
### Created by X-TOOL on Mon Oct 24 22:28:31 2005
### 

@<TRIPOS>MOLECULE
1fzk_ligand
  132   135     1     0     0
SMALL
GAST_HUCK


@<TRIPOS>ATOM
      1 N          49.8640   56.5120    4.9650 N.4       1 SUB1        0.239
      2 CA         49.0430   57.6520    4.4610 C.3       1 SUB1        0.074
      3 C          48.5200   57.2540    3.0820 C.2       1 SUB1        0.229
      4 O          49.2850   57.1580    2.1260 O.2       1 SUB1       -0.391
      5 CB         49.9230   58.8970    4.3590 C.3       1 SUB1        0.042
      6 CG         49.1640   60.1900    4.3470 C.ar      1 SUB1       -0.035
      7 CD1        48.6860   60.7400    5.5280 C.ar      1 SUB1       -0.060
      8 CD2        48.9660   60.8820    3.1590 C.ar      1 SUB1       -0.060
      9 CE1        48.0300   61.9710    5.5270 C.ar      1 SUB1       -0.069
     10 CE2        48.3130   62.1120    3.1460 C.ar      1 SUB1       -0.069
     11 CZ         47.8440   62.6550    4.3340 C.ar      1 SUB1       -0.069
     12 N          47.2140   57.0330    2.9870 N.am      1 SUB1       -0.261
     13 CA         46.5830   56.5950    1.7430 C.3       1 SUB1        0.128
     14 C          46.4910   57.6250    0.6180 C.2       1 SUB1        0.206
     15 O          46.4970   58.8320    0.8630 O.2       1 SUB1       -0.394
     16 CB         45.1850   56.0640    2.0570 C.3       1 SUB1       -0.024
     17 N          46.4260   57.1520   -0.6420 N.am      1 SUB1       -0.250
     18 CA         46.3180   58.0500   -1.7960 C.3       1 SUB1        0.134
     19 C          45.0710   58.9120   -1.5810 C.2       1 SUB1        0.204
     20 O          44.0420   58.4140   -1.1100 O.2       1 SUB1       -0.394
     21 CB         46.1570   57.0850   -2.9650 C.3       1 SUB1       -0.010
     22 CG         46.9830   55.9180   -2.5420 C.3       1 SUB1       -0.028
     23 CD         46.6120   55.7550   -1.0790 C.3       1 SUB1        0.037
     24 N          45.1620   60.1890   -1.9420 N.am      1 SUB1       -0.266
     25 CA         44.0520   61.1020   -1.7290 C.3       1 SUB1        0.120
     26 C          42.9710   61.3220   -2.7730 C.2       1 SUB1        0.201
     27 O          41.8270   61.5740   -2.3950 O.2       1 SUB1       -0.395
     28 N          43.2910   61.2540   -4.0610 N.am      1 SUB1       -0.262
     29 CA         42.2590   61.4860   -5.0750 C.3       1 SUB1        0.148
     30 C          42.4150   60.6310   -6.3310 C.2       1 SUB1        0.206
     31 O          43.1650   60.9700   -7.2490 O.2       1 SUB1       -0.394
     32 CB         42.2070   62.9830   -5.4480 C.3       1 SUB1        0.077
     33 CG         43.3020   63.4020   -6.4200 C.2       1 SUB1        0.178
     34 OD1        43.1790   63.2130   -7.6320 O.2       1 SUB1       -0.397
     35 ND2        44.3790   63.9740   -5.8910 N.am      1 SUB1       -0.301
     36 N          41.7050   59.5090   -6.3680 N.am      1 SUB1       -0.262
     37 CA         41.7780   58.6360   -7.5300 C.3       1 SUB1        0.139
     38 C          40.9910   59.2830   -8.6630 C.2       1 SUB1        0.208
     39 O          39.7750   59.4520   -8.5610 O.2       1 SUB1       -0.394
     40 CB         41.1860   57.2580   -7.2230 C.3       1 SUB1        0.016
     41 CG         41.9370   56.4560   -6.1770 C.ar      1 SUB1       -0.049
     42 CD1        41.6350   56.5810   -4.8210 C.ar      1 SUB1       -0.068
     43 CD2        42.9270   55.5420   -6.5500 C.ar      1 SUB1       -0.068
     44 CE1        42.2940   55.8060   -3.8630 C.ar      1 SUB1       -0.040
     45 CE2        43.5930   54.7690   -5.6010 C.ar      1 SUB1       -0.040
     46 CZ         43.2690   54.9040   -4.2580 C.ar      1 SUB1        0.080
     47 OH         43.9110   54.1310   -3.3070 O.3       1 SUB1       -0.338
     48 N          41.6760   59.6550   -9.7580 N.am      1 SUB1       -0.250
     49 CA         41.0060   60.2870  -10.9000 C.3       1 SUB1        0.134
     50 C          39.9180   59.3760  -11.4560 C.2       1 SUB1        0.204
     51 O          40.0930   58.1600  -11.5020 O.2       1 SUB1       -0.394
     52 CB         42.1480   60.5040  -11.8880 C.3       1 SUB1       -0.010
     53 CG         43.0640   59.3450  -11.5890 C.3       1 SUB1       -0.028
     54 CD         43.0800   59.3500  -10.0810 C.3       1 SUB1        0.037
     55 N          38.8000   59.9600  -11.8780 N.am      1 SUB1       -0.264
     56 CA         37.6950   59.1750  -12.4190 C.3       1 SUB1        0.128
     57 C          38.1050   58.5230  -13.7350 C.2       1 SUB1        0.205
     58 O          38.8430   59.1160  -14.5200 O.2       1 SUB1       -0.394
     59 CB         36.4720   60.0710  -12.6350 C.3       1 SUB1       -0.024
     60 N          37.6300   57.3030  -13.9720 N.am      1 SUB1       -0.268
     61 CA         37.9570   56.5930  -15.2060 C.3       1 SUB1        0.082
     62 C          37.2290   57.1890  -16.4110 C.2       1 SUB1        0.053
     63 O          36.2890   57.9920  -16.1990 O.co2     1 SUB1       -0.564
     64 CB         37.5870   55.1100  -15.0800 C.3       1 SUB1       -0.016
     65 CG         38.2890   54.3190  -13.9780 C.3       1 SUB1       -0.042
     66 CD1        37.8050   52.8700  -14.0090 C.3       1 SUB1       -0.062
     67 CD2        39.7870   54.3730  -14.1780 C.3       1 SUB1       -0.062
     68 OXT        37.5970   56.8290  -17.5560 O.co2     1 SUB1       -0.564
     69 H11        49.8454   55.7614    4.2925 H         1 SUB1        0.202
     70 H21        48.2017   57.8478    5.1420 H         1 SUB1        0.112
     71 H51        50.5062   58.8313    3.4287 H         1 SUB1        0.051
     72 H52        50.6069   58.9070    5.2205 H         1 SUB1        0.051
     73 H71        48.8240   60.2070    6.4618 H         1 SUB1        0.056
     74 H81        49.3251   60.4583    2.2281 H         1 SUB1        0.056
     75 H91        47.6660   62.3928    6.4569 H         1 SUB1        0.060
     76 H101       48.1716   62.6432    2.2117 H         1 SUB1        0.060
     77 H111       47.3335   63.6113    4.3300 H         1 SUB1        0.056
     78 H121       46.6416   57.1711    3.7953 H         1 SUB1        0.188
     79 H131       47.1887   55.7614    1.3579 H         1 SUB1        0.080
     80 H161       44.5845   56.8623    2.5175 H         1 SUB1        0.028
     81 H162       45.2627   55.2158    2.7531 H         1 SUB1        0.028
     82 H163       44.7014   55.7316    1.1266 H         1 SUB1        0.028
     83 H181       47.2085   58.6838   -1.9195 H         1 SUB1        0.080
     84 H211       46.5397   57.5245   -3.8979 H         1 SUB1        0.031
     85 H212       45.1039   56.7976   -3.1001 H         1 SUB1        0.031
     86 H221       48.0562   56.1298   -2.6572 H         1 SUB1        0.029
     87 H222       46.7228   55.0185   -3.1192 H         1 SUB1        0.029
     88 H231       47.4203   55.2660   -0.5155 H         1 SUB1        0.052
     89 H232       45.6838   55.1757   -0.9659 H         1 SUB1        0.052
     90 H241       46.0039   60.5244   -2.3648 H         1 SUB1        0.188
     91 H251       43.5363   60.7514   -0.8229 H         1 SUB1        0.076
     92 H252       44.4990   62.0887   -1.5379 H         1 SUB1        0.076
     93 H281       44.2296   61.0459   -4.3363 H         1 SUB1        0.189
     94 H291       41.2937   61.2184   -4.6206 H         1 SUB1        0.083
     95 H321       42.3124   63.5757   -4.5274 H         1 SUB1        0.055
     96 H322       41.2312   63.1937   -5.9100 H         1 SUB1        0.055
     97 H351       44.4386   64.1090   -4.9019 H         1 SUB1        0.181
     98 H352       45.1296   64.2693   -6.4821 H         1 SUB1        0.181
     99 H361       41.1190   59.2637   -5.5957 H         1 SUB1        0.189
    100 H371       42.8295   58.5171   -7.8303 H         1 SUB1        0.082
    101 H401       41.1749   56.6758   -8.1562 H         1 SUB1        0.045
    102 H402       40.1548   57.4010   -6.8678 H         1 SUB1        0.045
    103 H421       40.8779   57.2898   -4.5057 H         1 SUB1        0.053
    104 H431       43.1815   55.4325   -7.5980 H         1 SUB1        0.053
    105 H441       42.0432   55.9101   -2.8136 H         1 SUB1        0.052
    106 H451       44.3591   54.0669   -5.9095 H         1 SUB1        0.052
    107 H471       44.5463   53.5684   -3.7341 H         1 SUB1        0.246
    108 H491       40.5568   61.2485  -10.6106 H         1 SUB1        0.080
    109 H521       42.6518   61.4652  -11.7082 H         1 SUB1        0.031
    110 H522       41.7873   60.4678  -12.9265 H         1 SUB1        0.031
    111 H531       44.0700   59.5121  -12.0013 H         1 SUB1        0.029
    112 H532       42.6585   58.4013  -11.9827 H         1 SUB1        0.029
    113 H541       43.7566   60.1249   -9.6915 H         1 SUB1        0.052
    114 H542       43.3775   58.3692   -9.6817 H         1 SUB1        0.052
    115 H551       38.7151   60.9549  -11.8236 H         1 SUB1        0.188
    116 H561       37.4345   58.3858  -11.6984 H         1 SUB1        0.080
    117 H591       36.7261   60.8738  -13.3428 H         1 SUB1        0.028
    118 H592       36.1663   60.5120  -11.6748 H         1 SUB1        0.028
    119 H593       35.6451   59.4709  -13.0426 H         1 SUB1        0.028
    120 H601       37.0395   56.8649  -13.2943 H         1 SUB1        0.190
    121 H611       39.0407   56.6756  -15.3756 H         1 SUB1        0.078
    122 H641       37.8215   54.6253  -16.0392 H         1 SUB1        0.033
    123 H642       36.5044   55.0512  -14.8945 H         1 SUB1        0.033
    124 H651       38.0415   54.7612  -13.0017 H         1 SUB1        0.030
    125 H661       36.7191   52.8424  -13.8354 H         1 SUB1        0.023
    126 H662       38.3167   52.2956  -13.2228 H         1 SUB1        0.023
    127 H663       38.0307   52.4289  -14.9911 H         1 SUB1        0.023
    128 H671       40.0433   53.9281  -15.1508 H         1 SUB1        0.023
    129 H672       40.2847   53.8098  -13.3748 H         1 SUB1        0.023
    130 H673       40.1227   55.4202  -14.1538 H         1 SUB1        0.023
    131 H12        49.4862   56.1874    5.8413 H         1 SUB1        0.202
    132 H13        50.8149   56.8173    5.1016 H         1 SUB1        0.202
@<TRIPOS>BOND
     1    3    2 1  
     2    2    5 1  
     3    2    1 1  
     4    5    6 1  
     5    6    8 ar 
     6    6    7 ar 
     7    7    9 ar 
     8    9   11 ar 
     9   10   11 ar 
    10    8   10 ar 
    11    3    4 2  
    12   14   13 1  
    13   13   16 1  
    14   13   12 1  
    15   14   15 2  
    16   18   17 1  
    17   18   21 1  
    18   19   18 1  
    19   19   20 2  
    20   21   22 1  
    21   22   23 1  
    22   17   23 1  
    23   26   25 1  
    24   25   24 1  
    25   26   27 2  
    26   30   29 1  
    27   29   32 1  
    28   29   28 1  
    29   32   33 1  
    30   33   34 2  
    31   33   35 am 
    32   30   31 2  
    33   38   37 1  
    34   37   40 1  
    35   37   36 1  
    36   40   41 1  
    37   41   43 ar 
    38   41   42 ar 
    39   42   44 ar 
    40   44   46 ar 
    41   46   47 1  
    42   45   46 ar 
    43   43   45 ar 
    44   38   39 2  
    45   49   48 1  
    46   49   52 1  
    47   50   49 1  
    48   50   51 2  
    49   52   53 1  
    50   53   54 1  
    51   48   54 1  
    52   57   56 1  
    53   56   59 1  
    54   56   55 1  
    55   57   58 2  
    56   61   62 1  
    57   61   64 1  
    58   60   61 1  
    59   64   65 1  
    60   65   67 1  
    61   65   66 1  
    62   62   68 2  
    63   62   63 2  
    64   12    3 am 
    65   17   14 am 
    66   24   19 am 
    67   28   26 am 
    68   36   30 am 
    69   48   38 am 
    70   55   50 am 
    71   57   60 am 
    72    1   69 1  
    73    2   70 1  
    74    5   71 1  
    75    5   72 1  
    76    7   73 1  
    77    8   74 1  
    78    9   75 1  
    79   10   76 1  
    80   11   77 1  
    81   12   78 1  
    82   13   79 1  
    83   16   80 1  
    84   16   81 1  
    85   16   82 1  
    86   18   83 1  
    87   21   84 1  
    88   21   85 1  
    89   22   86 1  
    90   22   87 1  
    91   23   88 1  
    92   23   89 1  
    93   24   90 1  
    94   25   91 1  
    95   25   92 1  
    96   28   93 1  
    97   29   94 1  
    98   32   95 1  
    99   32   96 1  
   100   35   97 1  
   101   35   98 1  
   102   36   99 1  
   103   37  100 1  
   104   40  101 1  
   105   40  102 1  
   106   42  103 1  
   107   43  104 1  
   108   44  105 1  
   109   45  106 1  
   110   47  107 1  
   111   49  108 1  
   112   52  109 1  
   113   52  110 1  
   114   53  111 1  
   115   53  112 1  
   116   54  113 1  
   117   54  114 1  
   118   55  115 1  
   119   56  116 1  
   120   59  117 1  
   121   59  118 1  
   122   59  119 1  
   123   60  120 1  
   124   61  121 1  
   125   64  122 1  
   126   64  123 1  
   127   65  124 1  
   128   66  125 1  
   129   66  126 1  
   130   66  127 1  
   131   67  128 1  
   132   67  129 1  
   133   67  130 1  
   134    1  131 1  
   135    1  132 1  
@<TRIPOS>SUBSTRUCTURE
     1 SUB1        1 GROUP

