1jq8_ligand
  -I-interpret- 

 83 83  0  0  0  0  0  0  0  0999 V2000
    9.9060   15.7700   37.3930 N   0  3  0  0  0
    9.0230   16.9600   37.4950 C   0  0  0  0  0
    9.8540   18.1800   37.8930 C   0  0  0  0  0
   11.0100   18.0540   38.3070 O   0  0  0  0  0
    7.9390   16.7100   38.5480 C   0  0  0  0  0
    6.5120   17.2500   38.3840 C   0  0  0  0  0
    6.4390   18.2960   37.2830 C   0  0  0  0  0
    5.5880   16.0870   38.0710 C   0  0  0  0  0
    9.2600   19.3600   37.7560 N   0  0  0  0  0
    9.9280   20.6050   38.1120 C   0  0  0  0  0
   10.4790   20.4350   39.5250 C   0  0  0  0  0
    9.8690   19.7440   40.3240 O   0  0  0  0  0
    8.9300   21.7390   38.0720 C   0  0  0  0  0
   11.6160   21.0590   39.8340 N   0  0  0  0  0
   12.2350   20.9540   41.1670 C   0  0  0  0  0
   12.7110   22.3290   41.6560 C   0  0  0  0  0
   12.6620   23.3020   40.9070 O   0  0  0  0  0
   13.4940   20.0800   41.1310 C   0  0  0  0  0
   13.9330   19.7280   42.5570 C   0  0  0  0  0
   14.6040   20.8460   40.4160 C   0  0  0  0  0
   15.4090   19.4820   42.7380 C   0  0  0  0  0
   13.1440   22.4150   42.9030 N   0  0  0  0  0
   13.7030   23.6520   43.3930 C   0  0  0  0  0
   15.1970   23.5630   43.0690 C   0  0  0  0  0
   15.9720   22.9800   43.8170 O   0  0  0  0  0
   13.3650   23.8970   44.8820 C   0  0  0  0  0
   14.4860   23.7370   45.9200 C   0  0  0  0  0
   15.6310   24.5330   45.9230 C   0  0  0  0  0
   14.3710   22.7480   46.8990 C   0  0  0  0  0
   16.6390   24.3360   46.8690 C   0  0  0  0  0
   15.3650   22.5490   47.8410 C   0  0  0  0  0
   16.4930   23.3370   47.8180 C   0  0  0  0  0
   17.4860   23.1350   48.7540 O   0  0  0  0  0
   15.5340   24.1240   41.9310 N   0  0  0  0  0
   16.8960   24.1240   41.3970 C   0  0  0  0  0
   17.9590   24.4720   42.4230 C   0  0  0  0  0
   17.6670   24.6320   43.6050 O   0  0  0  0  0
   16.5780   24.7590   40.0370 C   0  0  0  0  0
   17.9160   25.1700   39.8350 O   0  0  0  0  0
   19.2190   24.0740   42.0110 O   0  5  0  0  0
   10.8654   16.0516   37.5206 H   0  0  0  0  0
    8.5476   17.1451   36.5205 H   0  0  0  0  0
    8.3213   17.1292   39.4904 H   0  0  0  0  0
    7.8469   15.6180   38.6432 H   0  0  0  0  0
    6.1966   17.7154   39.3295 H   0  0  0  0  0
    7.0964   19.1409   37.5358 H   0  0  0  0  0
    5.4034   18.6537   37.1851 H   0  0  0  0  0
    6.7643   17.8502   36.3315 H   0  0  0  0  0
    5.9076   15.6066   37.1345 H   0  0  0  0  0
    4.5579   16.4566   37.9605 H   0  0  0  0  0
    5.6289   15.3551   38.8912 H   0  0  0  0  0
    8.3269   19.3950   37.3980 H   0  0  0  0  0
   10.7490   20.8105   37.4093 H   0  0  0  0  0
    8.1192   21.5392   38.7880 H   0  0  0  0  0
    8.5114   21.8235   37.0583 H   0  0  0  0  0
    9.4329   22.6797   38.3406 H   0  0  0  0  0
   12.0645   21.6180   39.1365 H   0  0  0  0  0
   11.5020   20.5327   41.8706 H   0  0  0  0  0
   13.2782   19.1521   40.5811 H   0  0  0  0  0
   13.3975   18.8167   42.8616 H   0  0  0  0  0
   13.6445   20.5603   43.2159 H   0  0  0  0  0
   14.2886   21.0731   39.3869 H   0  0  0  0  0
   15.5167   20.2325   40.3928 H   0  0  0  0  0
   14.8066   21.7844   40.9530 H   0  0  0  0  0
   15.7195   18.6354   42.1081 H   0  0  0  0  0
   15.6152   19.2490   43.7931 H   0  0  0  0  0
   15.9694   20.3820   42.4450 H   0  0  0  0  0
   13.0838   21.6208   43.5077 H   0  0  0  0  0
   13.2736   24.4897   42.8239 H   0  0  0  0  0
   12.5659   23.1920   45.1547 H   0  0  0  0  0
   12.9890   24.9274   44.9652 H   0  0  0  0  0
   15.7400   25.3154   45.1807 H   0  0  0  0  0
   13.4852   22.1235   46.9216 H   0  0  0  0  0
   17.5266   24.9582   46.8610 H   0  0  0  0  0
   15.2557   21.7762   48.5933 H   0  0  0  0  0
   17.2376   22.4202   49.3283 H   0  0  0  0  0
   14.8189   24.5772   41.3988 H   0  0  0  0  0
   17.1613   23.0844   41.1543 H   0  0  0  0  0
   15.8679   25.5967   40.1006 H   0  0  0  0  0
   16.2248   24.0350   39.2879 H   0  0  0  0  0
   18.4833   24.4080   39.8333 H   0  0  0  0  0
    9.7977   15.3482   36.4839 H   0  0  0  0  0
    9.6542   15.1027   38.1053 H   0  0  0  0  0
  3  2  1  0  0  0
  2  5  1  0  0  0
  2  1  1  0  0  0
  5  6  1  0  0  0
  6  8  1  0  0  0
  6  7  1  0  0  0
  3  4  2  0  0  0
 11 10  1  0  0  0
 10 13  1  0  0  0
 10  9  1  0  0  0
 11 12  2  0  0  0
 16 15  1  0  0  0
 15 18  1  0  0  0
 15 14  1  0  0  0
 18 19  1  0  0  0
 18 20  1  0  0  0
 19 21  1  0  0  0
 16 17  2  0  0  0
 24 23  1  0  0  0
 23 26  1  0  0  0
 23 22  1  0  0  0
 26 27  1  0  0  0
 27 29  4  0  0  0
 27 28  4  0  0  0
 28 30  4  0  0  0
 30 32  4  0  0  0
 32 33  1  0  0  0
 31 32  4  0  0  0
 29 31  4  0  0  0
 24 25  2  0  0  0
 35 36  1  0  0  0
 35 38  1  0  0  0
 34 35  1  0  0  0
 38 39  1  0  0  0
 36 40  1  0  0  0
 36 37  2  0  0  0
  9  3  1  0  0  0
 14 11  1  0  0  0
 22 16  1  0  0  0
 24 34  1  0  0  0
  1 41  1  0  0  0
  2 42  1  0  0  0
  5 43  1  0  0  0
  5 44  1  0  0  0
  6 45  1  0  0  0
  7 46  1  0  0  0
  7 47  1  0  0  0
  7 48  1  0  0  0
  8 49  1  0  0  0
  8 50  1  0  0  0
  8 51  1  0  0  0
  9 52  1  0  0  0
 10 53  1  0  0  0
 13 54  1  0  0  0
 13 55  1  0  0  0
 13 56  1  0  0  0
 14 57  1  0  0  0
 15 58  1  0  0  0
 18 59  1  0  0  0
 19 60  1  0  0  0
 19 61  1  0  0  0
 20 62  1  0  0  0
 20 63  1  0  0  0
 20 64  1  0  0  0
 21 65  1  0  0  0
 21 66  1  0  0  0
 21 67  1  0  0  0
 22 68  1  0  0  0
 23 69  1  0  0  0
 26 70  1  0  0  0
 26 71  1  0  0  0
 28 72  1  0  0  0
 29 73  1  0  0  0
 30 74  1  0  0  0
 31 75  1  0  0  0
 33 76  1  0  0  0
 34 77  1  0  0  0
 35 78  1  0  0  0
 38 79  1  0  0  0
 38 80  1  0  0  0
 39 81  1  0  0  0
  1 82  1  0  0  0
  1 83  1  0  0  0
M  END
$$$$
