### 
### Created by X-TOOL on Tue Oct 25 00:03:37 2005
### 

@<TRIPOS>MOLECULE
1jq8_ligand
   83    83     1     0     0
SMALL
GAST_HUCK


@<TRIPOS>ATOM
      1 N           9.9060   15.7700   37.3930 N.4       1 SUB1        0.238
      2 CA          9.0230   16.9600   37.4950 C.3       1 SUB1        0.065
      3 C           9.8540   18.1800   37.8930 C.2       1 SUB1        0.227
      4 O          11.0100   18.0540   38.3070 O.2       1 SUB1       -0.391
      5 CB          7.9390   16.7100   38.5480 C.3       1 SUB1        0.010
      6 CG          6.5120   17.2500   38.3840 C.3       1 SUB1       -0.039
      7 CD1         6.4390   18.2960   37.2830 C.3       1 SUB1       -0.062
      8 CD2         5.5880   16.0870   38.0710 C.3       1 SUB1       -0.062
      9 N           9.2600   19.3600   37.7560 N.am      1 SUB1       -0.261
     10 CA          9.9280   20.6050   38.1120 C.3       1 SUB1        0.128
     11 C          10.4790   20.4350   39.5250 C.2       1 SUB1        0.204
     12 O           9.8690   19.7440   40.3240 O.2       1 SUB1       -0.394
     13 CB          8.9300   21.7390   38.0720 C.3       1 SUB1       -0.024
     14 N          11.6160   21.0590   39.8340 N.am      1 SUB1       -0.264
     15 CA         12.2350   20.9540   41.1670 C.3       1 SUB1        0.133
     16 C          12.7110   22.3290   41.6560 C.2       1 SUB1        0.204
     17 O          12.6620   23.3020   40.9070 O.2       1 SUB1       -0.394
     18 CB         13.4940   20.0800   41.1310 C.3       1 SUB1       -0.004
     19 CG1        13.9330   19.7280   42.5570 C.3       1 SUB1       -0.049
     20 CG2        14.6040   20.8460   40.4160 C.3       1 SUB1       -0.058
     21 CD1        15.4090   19.4820   42.7380 C.3       1 SUB1       -0.065
     22 N          13.1440   22.4150   42.9030 N.am      1 SUB1       -0.262
     23 CA         13.7030   23.6520   43.3930 C.3       1 SUB1        0.139
     24 C          15.1970   23.5630   43.0690 C.2       1 SUB1        0.207
     25 O          15.9720   22.9800   43.8170 O.2       1 SUB1       -0.394
     26 CB         13.3650   23.8970   44.8820 C.3       1 SUB1        0.016
     27 CG         14.4860   23.7370   45.9200 C.ar      1 SUB1       -0.049
     28 CD1        15.6310   24.5330   45.9230 C.ar      1 SUB1       -0.068
     29 CD2        14.3710   22.7480   46.8990 C.ar      1 SUB1       -0.068
     30 CE1        16.6390   24.3360   46.8690 C.ar      1 SUB1       -0.040
     31 CE2        15.3650   22.5490   47.8410 C.ar      1 SUB1       -0.040
     32 CZ         16.4930   23.3370   47.8180 C.ar      1 SUB1        0.080
     33 OH         17.4860   23.1350   48.7540 O.3       1 SUB1       -0.338
     34 N          15.5340   24.1240   41.9310 N.am      1 SUB1       -0.266
     35 CA         16.8960   24.1240   41.3970 C.3       1 SUB1        0.104
     36 C          17.9590   24.4720   42.4230 C.2       1 SUB1        0.055
     37 O          17.6670   24.6320   43.6050 O.co2     1 SUB1       -0.564
     38 CB         16.5780   24.7590   40.0370 C.3       1 SUB1        0.078
     39 OG         17.9160   25.1700   39.8350 O.3       1 SUB1       -0.389
     40 OXT        19.2190   24.0740   42.0110 O.co2     1 SUB1       -0.564
     41 H11        10.8654   16.0516   37.5206 H         1 SUB1        0.201
     42 H21         8.5476   17.1451   36.5205 H         1 SUB1        0.110
     43 H51         8.3213   17.1292   39.4904 H         1 SUB1        0.035
     44 H52         7.8469   15.6180   38.6432 H         1 SUB1        0.035
     45 H61         6.1966   17.7154   39.3295 H         1 SUB1        0.030
     46 H71         7.0964   19.1409   37.5358 H         1 SUB1        0.023
     47 H72         5.4034   18.6537   37.1851 H         1 SUB1        0.023
     48 H73         6.7643   17.8502   36.3315 H         1 SUB1        0.023
     49 H81         5.9076   15.6066   37.1345 H         1 SUB1        0.023
     50 H82         4.5579   16.4566   37.9605 H         1 SUB1        0.023
     51 H83         5.6289   15.3551   38.8912 H         1 SUB1        0.023
     52 H91         8.3269   19.3950   37.3980 H         1 SUB1        0.188
     53 H101       10.7490   20.8105   37.4093 H         1 SUB1        0.080
     54 H131        8.1192   21.5392   38.7880 H         1 SUB1        0.028
     55 H132        8.5114   21.8235   37.0583 H         1 SUB1        0.028
     56 H133        9.4329   22.6797   38.3406 H         1 SUB1        0.028
     57 H141       12.0645   21.6180   39.1365 H         1 SUB1        0.188
     58 H151       11.5020   20.5327   41.8706 H         1 SUB1        0.080
     59 H181       13.2782   19.1521   40.5811 H         1 SUB1        0.034
     60 H191       13.3975   18.8167   42.8616 H         1 SUB1        0.027
     61 H192       13.6445   20.5603   43.2159 H         1 SUB1        0.027
     62 H201       14.2886   21.0731   39.3869 H         1 SUB1        0.023
     63 H202       15.5167   20.2325   40.3928 H         1 SUB1        0.023
     64 H203       14.8066   21.7844   40.9530 H         1 SUB1        0.023
     65 H211       15.7195   18.6354   42.1081 H         1 SUB1        0.023
     66 H212       15.6152   19.2490   43.7931 H         1 SUB1        0.023
     67 H213       15.9694   20.3820   42.4450 H         1 SUB1        0.023
     68 H221       13.0838   21.6208   43.5077 H         1 SUB1        0.189
     69 H231       13.2736   24.4897   42.8239 H         1 SUB1        0.082
     70 H261       12.5659   23.1920   45.1547 H         1 SUB1        0.045
     71 H262       12.9890   24.9274   44.9652 H         1 SUB1        0.045
     72 H281       15.7400   25.3154   45.1807 H         1 SUB1        0.053
     73 H291       13.4852   22.1235   46.9216 H         1 SUB1        0.053
     74 H301       17.5266   24.9582   46.8610 H         1 SUB1        0.052
     75 H311       15.2557   21.7762   48.5933 H         1 SUB1        0.052
     76 H331       17.2376   22.4202   49.3283 H         1 SUB1        0.246
     77 H341       14.8189   24.5772   41.3988 H         1 SUB1        0.190
     78 H351       17.1613   23.0844   41.1543 H         1 SUB1        0.080
     79 H381       15.8679   25.5967   40.1006 H         1 SUB1        0.062
     80 H382       16.2248   24.0350   39.2879 H         1 SUB1        0.062
     81 H391       18.4833   24.4080   39.8333 H         1 SUB1        0.210
     82 H12         9.7977   15.3482   36.4839 H         1 SUB1        0.201
     83 H13         9.6542   15.1027   38.1053 H         1 SUB1        0.201
@<TRIPOS>BOND
     1    3    2 1  
     2    2    5 1  
     3    2    1 1  
     4    5    6 1  
     5    6    8 1  
     6    6    7 1  
     7    3    4 2  
     8   11   10 1  
     9   10   13 1  
    10   10    9 1  
    11   11   12 2  
    12   16   15 1  
    13   15   18 1  
    14   15   14 1  
    15   18   19 1  
    16   18   20 1  
    17   19   21 1  
    18   16   17 2  
    19   24   23 1  
    20   23   26 1  
    21   23   22 1  
    22   26   27 1  
    23   27   29 ar 
    24   27   28 ar 
    25   28   30 ar 
    26   30   32 ar 
    27   32   33 1  
    28   31   32 ar 
    29   29   31 ar 
    30   24   25 2  
    31   35   36 1  
    32   35   38 1  
    33   34   35 1  
    34   38   39 1  
    35   36   40 2  
    36   36   37 2  
    37    9    3 am 
    38   14   11 am 
    39   22   16 am 
    40   24   34 am 
    41    1   41 1  
    42    2   42 1  
    43    5   43 1  
    44    5   44 1  
    45    6   45 1  
    46    7   46 1  
    47    7   47 1  
    48    7   48 1  
    49    8   49 1  
    50    8   50 1  
    51    8   51 1  
    52    9   52 1  
    53   10   53 1  
    54   13   54 1  
    55   13   55 1  
    56   13   56 1  
    57   14   57 1  
    58   15   58 1  
    59   18   59 1  
    60   19   60 1  
    61   19   61 1  
    62   20   62 1  
    63   20   63 1  
    64   20   64 1  
    65   21   65 1  
    66   21   66 1  
    67   21   67 1  
    68   22   68 1  
    69   23   69 1  
    70   26   70 1  
    71   26   71 1  
    72   28   72 1  
    73   29   73 1  
    74   30   74 1  
    75   31   75 1  
    76   33   76 1  
    77   34   77 1  
    78   35   78 1  
    79   38   79 1  
    80   38   80 1  
    81   39   81 1  
    82    1   82 1  
    83    1   83 1  
@<TRIPOS>SUBSTRUCTURE
     1 SUB1        1 GROUP

