### 
### Created by X-TOOL on Tue Oct 25 02:02:53 2005
### 

@<TRIPOS>MOLECULE
1udt_ligand
   63    66     1     0     0
SMALL
GAST_HUCK


@<TRIPOS>ATOM
      1 C34        -0.1320   61.4670   80.1200 C.3       1 SUB1       -0.064
      2 C33        -0.1690   61.7920   81.5890 C.3       1 SUB1       -0.047
      3 C32        -1.2610   62.8640   81.9270 C.3       1 SUB1       -0.013
      4 C30        -1.1140   63.0310   83.4050 C.2       1 SUB1        0.034
      5 N29        -1.7980   62.2800   84.3700 N.2       1 SUB1       -0.217
      6 N28        -1.4140   62.6960   85.6120 N.pl3     1 SUB1       -0.206
      7 C31        -1.9480   62.1110   86.8450 C.3       1 SUB1        0.055
      8 C24        -0.4950   63.7000   85.4400 C.2       1 SUB1        0.166
      9 C23         0.2600   64.5190   86.3460 C.2       1 SUB1        0.252
     10 O27         0.1800   64.4220   87.5490 O.2       1 SUB1       -0.394
     11 N22         1.1250   65.4740   85.8160 N.am      1 SUB1       -0.206
     12 C21         1.3080   65.6840   84.4420 C.2       1 SUB1        0.147
     13 N26         0.5970   64.9070   83.5200 N.2       1 SUB1       -0.318
     14 C25        -0.2930   63.9280   84.0460 C.2       1 SUB1        0.046
     15 C9          2.2230   66.7020   84.0580 C.ar      1 SUB1        0.071
     16 C8          1.7310   67.6550   83.0840 C.ar      1 SUB1       -0.024
     17 C7          2.5680   68.7580   82.6170 C.ar      1 SUB1        0.104
     18 C6          3.9520   68.8600   83.1800 C.ar      1 SUB1       -0.039
     19 C5          4.4660   67.9110   84.1620 C.ar      1 SUB1       -0.024
     20 C4          3.6090   66.8060   84.6330 C.ar      1 SUB1        0.114
     21 O3          4.0190   65.8300   85.6200 O.3       1 SUB1       -0.311
     22 C2          5.3040   65.8030   86.2730 C.3       1 SUB1        0.070
     23 C1          5.2340   64.6230   87.2280 C.3       1 SUB1       -0.037
     24 S10         2.0230   69.8310   81.5610 S.o2      1 SUB1        0.067
     25 O11         2.3130   69.6000   80.2940 O.2       1 SUB1       -0.151
     26 O12         0.7120   69.8610   81.6110 O.2       1 SUB1       -0.151
     27 N14         2.6900   71.1590   82.1270 N.am      1 SUB1       -0.233
     28 C19         1.7240   72.0870   82.9630 C.3       1 SUB1        0.042
     29 C18         0.8200   73.0570   82.1780 C.3       1 SUB1        0.016
     30 N17         1.4260   73.6860   80.9560 N.3       1 SUB1       -0.302
     31 C20         1.5570   75.1560   81.2010 C.3       1 SUB1       -0.013
     32 C16         2.7520   73.1450   80.4160 C.3       1 SUB1        0.016
     33 C15         3.5390   72.0920   81.2850 C.3       1 SUB1        0.042
     34 H11         0.6464   60.7131   79.9308 H         1 SUB1        0.023
     35 H12         0.0943   62.3791   79.5482 H         1 SUB1        0.023
     36 H13        -1.1095   61.0712   79.8073 H         1 SUB1        0.023
     37 H21         0.8148   62.1800   81.8916 H         1 SUB1        0.028
     38 H22        -0.3889   60.8721   82.1506 H         1 SUB1        0.028
     39 H31        -2.2664   62.5011   81.6673 H         1 SUB1        0.041
     40 H32        -1.0649   63.8094   81.3999 H         1 SUB1        0.041
     41 H71        -1.4912   62.6072   87.7140 H         1 SUB1        0.059
     42 H72        -1.7148   61.0363   86.8720 H         1 SUB1        0.059
     43 H73        -3.0387   62.2504   86.8746 H         1 SUB1        0.059
     44 H111        1.6456   66.0428   86.4527 H         1 SUB1        0.246
     45 H161        0.7249   67.5480   82.6951 H         1 SUB1        0.066
     46 H181        4.5943   69.6670   82.8464 H         1 SUB1        0.065
     47 H191        5.4747   68.0175   84.5445 H         1 SUB1        0.056
     48 H221        5.4767   66.7382   86.8258 H         1 SUB1        0.062
     49 H222        6.1088   65.6579   85.5373 H         1 SUB1        0.062
     50 H231        6.1867   64.5334   87.7705 H         1 SUB1        0.026
     51 H232        5.0484   63.7006   86.6582 H         1 SUB1        0.026
     52 H233        4.4163   64.7809   87.9467 H         1 SUB1        0.026
     53 H281        2.3483   72.6907   83.6381 H         1 SUB1        0.049
     54 H282        1.0690   71.4324   83.5566 H         1 SUB1        0.049
     55 H291        0.5242   73.8671   82.8608 H         1 SUB1        0.044
     56 H292       -0.0740   72.5002   81.8606 H         1 SUB1        0.044
     57 H311        1.9998   75.6371   80.3164 H         1 SUB1        0.039
     58 H312        2.2048   75.3260   82.0736 H         1 SUB1        0.039
     59 H313        0.5628   75.5858   81.3930 H         1 SUB1        0.039
     60 H321        3.4187   74.0071   80.2665 H         1 SUB1        0.044
     61 H322        2.5399   72.6727   79.4454 H         1 SUB1        0.044
     62 H331        4.1416   71.4750   80.6022 H         1 SUB1        0.049
     63 H332        4.2050   72.6456   81.9633 H         1 SUB1        0.049
@<TRIPOS>BOND
     1    1    2 1  
     2    2    3 1  
     3    3    4 1  
     4    4    5 2  
     5    4   14 1  
     6    5    6 1  
     7    6    7 1  
     8    6    8 1  
     9    8    9 1  
    10    8   14 2  
    11    9   10 2  
    12    9   11 am 
    13   11   12 am 
    14   12   13 2  
    15   12   15 1  
    16   13   14 1  
    17   15   16 ar 
    18   15   20 ar 
    19   16   17 ar 
    20   17   18 ar 
    21   17   24 1  
    22   18   19 ar 
    23   19   20 ar 
    24   20   21 1  
    25   21   22 1  
    26   22   23 1  
    27   24   25 2  
    28   24   26 2  
    29   24   27 am 
    30   27   28 1  
    31   27   33 1  
    32   28   29 1  
    33   29   30 1  
    34   30   31 1  
    35   30   32 1  
    36   32   33 1  
    37    1   34 1  
    38    1   35 1  
    39    1   36 1  
    40    2   37 1  
    41    2   38 1  
    42    3   39 1  
    43    3   40 1  
    44    7   41 1  
    45    7   42 1  
    46    7   43 1  
    47   11   44 1  
    48   16   45 1  
    49   18   46 1  
    50   19   47 1  
    51   22   48 1  
    52   22   49 1  
    53   23   50 1  
    54   23   51 1  
    55   23   52 1  
    56   28   53 1  
    57   28   54 1  
    58   29   55 1  
    59   29   56 1  
    60   31   57 1  
    61   31   58 1  
    62   31   59 1  
    63   32   60 1  
    64   32   61 1  
    65   33   62 1  
    66   33   63 1  
@<TRIPOS>SUBSTRUCTURE
     1 SUB1        1 GROUP

