1ax0_ligand
  -I-interpret- 

 30 30  0  0  0  0  0  0  0  0999 V2000
   18.1448   -0.8611   36.0708 H   0  0  0  0  0
   16.3649   -0.8410   34.3936 H   0  0  0  0  0
   14.3812   -0.9367   36.7244 H   0  0  0  0  0
   13.8308   -3.2021   35.9519 H   0  0  0  0  0
   15.5965   -2.8985   37.6551 H   0  0  0  0  0
   16.5287   -5.0571   35.7223 H   0  0  0  0  0
   15.0463   -5.2128   36.7248 H   0  0  0  0  0
   16.2555    3.6968   34.0167 H   0  0  0  0  0
   16.8951    3.3840   35.6658 H   0  0  0  0  0
   15.1238    3.3545   35.3690 H   0  0  0  0  0
   15.8695    1.1568   36.5687 H   0  0  0  0  0
   16.0394   -1.2262   37.9277 H   0  0  0  0  0
   14.0603   -1.0413   33.8881 H   0  0  0  0  0
   14.4743   -2.8823   33.7478 H   0  0  0  0  0
   17.6868   -4.7540   37.7009 H   0  0  0  0  0
   17.1550   -1.2410   36.3640 C   0  0  0  0  0
   16.0900   -0.6370   35.4390 C   0  0  0  0  0
   14.7130   -1.2450   35.7220 C   0  0  0  0  0
   14.8010   -2.7670   35.6700 C   0  0  0  0  0
   15.8730   -3.2350   36.6450 C   0  0  0  0  0
   16.0380   -4.7420   36.6550 C   0  0  0  0  0
   16.1870    1.6330   34.6300 C   0  0  0  0  0
   16.1100    3.1200   34.9420 C   0  0  0  0  0
   16.0300    0.7960   35.6500 N   0  0  0  0  0
   16.8900   -0.8870   37.6750 O   0  0  0  0  0
   13.7740   -0.7820   34.7560 O   0  0  0  0  0
   15.1410   -3.1810   34.3550 O   0  0  0  0  0
   17.1480   -2.6690   36.2790 O   0  0  0  0  0
   16.8280   -5.1560   37.7590 O   0  0  0  0  0
   16.3880    1.2560   33.4760 O   0  0  0  0  0
 16  1  1  0  0  0
 17  2  1  0  0  0
 18  3  1  0  0  0
 19  4  1  0  0  0
 20  5  1  0  0  0
 21  6  1  0  0  0
 21  7  1  0  0  0
 23  8  1  0  0  0
 23  9  1  0  0  0
 23 10  1  0  0  0
 24 11  1  0  0  0
 25 12  1  0  0  0
 26 13  1  0  0  0
 27 14  1  0  0  0
 29 15  1  0  0  0
 16 28  1  0  0  0
 16 25  1  0  0  0
 17 16  1  0  0  0
 24 17  1  0  0  0
 17 18  1  0  0  0
 18 26  1  0  0  0
 18 19  1  0  0  0
 19 27  1  0  0  0
 19 20  1  0  0  0
 28 20  1  0  0  0
 20 21  1  0  0  0
 21 29  1  0  0  0
 22 24  1  0  0  0
 22 30  2  0  0  0
 22 23  1  0  0  0
M  END
$$$$
