### 
### Created by X-TOOL on Mon Oct 24 23:04:05 2005
### 

@<TRIPOS>MOLECULE
1ax0_ligand
   30    30     1     0     0
SMALL
GAST_HUCK


@<TRIPOS>ATOM
      1 H161       18.1448   -0.8611   36.0708 H         1 SUB1        0.093
      2 H171       16.3649   -0.8410   34.3936 H         1 SUB1        0.063
      3 H181       14.3812   -0.9367   36.7244 H         1 SUB1        0.064
      4 H191       13.8308   -3.2021   35.9519 H         1 SUB1        0.065
      5 H201       15.5965   -2.8985   37.6551 H         1 SUB1        0.065
      6 H211       16.5287   -5.0571   35.7223 H         1 SUB1        0.058
      7 H212       15.0463   -5.2128   36.7248 H         1 SUB1        0.058
      8 H231       16.2555    3.6968   34.0167 H         1 SUB1        0.047
      9 H232       16.8951    3.3840   35.6658 H         1 SUB1        0.047
     10 H233       15.1238    3.3545   35.3690 H         1 SUB1        0.047
     11 H241       15.8695    1.1568   36.5687 H         1 SUB1        0.186
     12 H251       16.0394   -1.2262   37.9277 H         1 SUB1        0.213
     13 H261       14.0603   -1.0413   33.8881 H         1 SUB1        0.210
     14 H271       14.4743   -2.8823   33.7478 H         1 SUB1        0.210
     15 H291       17.6868   -4.7540   37.7009 H         1 SUB1        0.209
     16 C1         17.1550   -1.2410   36.3640 C.3       1 SUB1        0.182
     17 C2         16.0900   -0.6370   35.4390 C.3       1 SUB1        0.121
     18 C3         14.7130   -1.2450   35.7220 C.3       1 SUB1        0.111
     19 C4         14.8010   -2.7670   35.6700 C.3       1 SUB1        0.112
     20 C5         15.8730   -3.2350   36.6450 C.3       1 SUB1        0.113
     21 C6         16.0380   -4.7420   36.6550 C.3       1 SUB1        0.073
     22 C7         16.1870    1.6330   34.6300 C.2       1 SUB1        0.173
     23 C8         16.1100    3.1200   34.9420 C.3       1 SUB1        0.026
     24 N2         16.0300    0.7960   35.6500 N.am      1 SUB1       -0.277
     25 O1         16.8900   -0.8870   37.6750 O.3       1 SUB1       -0.365
     26 O3         13.7740   -0.7820   34.7560 O.3       1 SUB1       -0.387
     27 O4         15.1410   -3.1810   34.3550 O.3       1 SUB1       -0.387
     28 O5         17.1480   -2.6690   36.2790 O.3       1 SUB1       -0.341
     29 O6         16.8280   -5.1560   37.7590 O.3       1 SUB1       -0.392
     30 O7         16.3880    1.2560   33.4760 O.2       1 SUB1       -0.397
@<TRIPOS>BOND
     1   16    1 1  
     2   17    2 1  
     3   18    3 1  
     4   19    4 1  
     5   20    5 1  
     6   21    6 1  
     7   21    7 1  
     8   23    8 1  
     9   23    9 1  
    10   23   10 1  
    11   24   11 1  
    12   25   12 1  
    13   26   13 1  
    14   27   14 1  
    15   29   15 1  
    16   16   28 1  
    17   16   25 1  
    18   17   16 1  
    19   24   17 1  
    20   17   18 1  
    21   18   26 1  
    22   18   19 1  
    23   19   27 1  
    24   19   20 1  
    25   28   20 1  
    26   20   21 1  
    27   21   29 1  
    28   22   24 am 
    29   22   30 2  
    30   22   23 1  
@<TRIPOS>SUBSTRUCTURE
     1 SUB1        1 GROUP

