### 
### Created by X-TOOL on Mon Oct 24 22:40:21 2005
### 

@<TRIPOS>MOLECULE
1bhf_ligand
   81    81     1     0     0
SMALL
GAST_HUCK


@<TRIPOS>ATOM
      1 C          27.6390   -3.7340   -1.7180 C.2       1 SUB1        0.175
      2 O          28.2180   -4.1110   -0.6940 O.2       1 SUB1       -0.397
      3 CH3        27.6430   -4.6120   -2.9520 C.3       1 SUB1        0.026
      4 N          26.9090   -2.6180   -1.7950 N.am      1 SUB1       -0.264
      5 CA         26.8160   -1.6200   -0.7320 C.3       1 SUB1        0.140
      6 CB         27.3020   -0.2740   -1.2730 C.3       1 SUB1        0.019
      7 CG         28.7740   -0.2820   -1.5270 C.ar      1 SUB1       -0.045
      8 CD1        29.6750   -0.2880   -0.4600 C.ar      1 SUB1       -0.066
      9 CE1        31.0600   -0.3520   -0.6900 C.ar      1 SUB1       -0.063
     10 CD2        29.2780   -0.3380   -2.8210 C.ar      1 SUB1       -0.066
     11 CE2        30.6650   -0.4050   -3.0430 C.ar      1 SUB1       -0.063
     12 CZ         31.5700   -0.4150   -1.9850 C.ar      1 SUB1       -0.035
     13 CH         33.0620   -0.5450   -2.2370 C.3       1 SUB1        0.016
     14 CO         33.8610   -0.9830   -1.0180 C.2       1 SUB1        0.037
     15 O1         33.5870   -2.0610   -0.4540 O.co2     1 SUB1       -0.566
     16 O2         34.7620   -0.2370   -0.5980 O.co2     1 SUB1       -0.566
     17 C          25.4310   -1.4430   -0.1020 C.2       1 SUB1        0.206
     18 O          24.4480   -1.1160   -0.7770 O.2       1 SUB1       -0.394
     19 N          25.3810   -1.6540    1.2010 N.am      1 SUB1       -0.263
     20 CA         24.1590   -1.5130    1.9680 C.3       1 SUB1        0.134
     21 C          23.8810   -0.0050    2.0920 C.2       1 SUB1        0.204
     22 O          24.8030    0.8160    2.0170 O.2       1 SUB1       -0.394
     23 CB         24.3850   -2.1560    3.3330 C.3       1 SUB1       -0.001
     24 CG         23.1690   -2.3880    4.1900 C.3       1 SUB1       -0.010
     25 CD         22.2020   -3.4460    3.6450 C.2       1 SUB1        0.028
     26 OE1        22.4490   -4.0610    2.5940 O.co2     1 SUB1       -0.567
     27 OE2        21.1720   -3.6520    4.2990 O.co2     1 SUB1       -0.567
     28 N          22.6140    0.3660    2.2340 N.am      1 SUB1       -0.263
     29 CA         22.2640    1.7710    2.3640 C.3       1 SUB1        0.134
     30 C          21.3300    1.9310    3.5540 C.2       1 SUB1        0.205
     31 O          20.7540    0.9580    4.0570 O.2       1 SUB1       -0.394
     32 CB         21.5260    2.2980    1.1140 C.3       1 SUB1       -0.001
     33 CG         22.2080    2.1130   -0.2250 C.3       1 SUB1       -0.010
     34 CD         23.4140    3.0300   -0.4660 C.2       1 SUB1        0.028
     35 OE1        23.7180    3.9120    0.3580 O.co2     1 SUB1       -0.567
     36 OE2        24.0630    2.8480   -1.5050 O.co2     1 SUB1       -0.567
     37 N          21.2330    3.1670    4.0250 N.am      1 SUB1       -0.268
     38 CA         20.3300    3.5070    5.1040 C.3       1 SUB1        0.084
     39 C          18.9680    3.7500    4.3940 C.2       1 SUB1        0.053
     40 O          18.9640    4.3350    3.2920 O.co2     1 SUB1       -0.564
     41 CB         20.8310    4.7620    5.8580 C.3       1 SUB1       -0.010
     42 CG1        21.9400    4.3630    6.8260 C.3       1 SUB1       -0.048
     43 CG2        19.6850    5.4810    6.5640 C.3       1 SUB1       -0.058
     44 CD1        22.5100    5.5200    7.6340 C.3       1 SUB1       -0.065
     45 OXT        17.9340    3.2380    4.8710 O.co2     1 SUB1       -0.564
     46 H191       26.2188   -1.9214    1.6769 H         1 SUB1        0.188
     47 H201       23.3201   -2.0088    1.4577 H         1 SUB1        0.080
     48 H231       25.0690   -1.5050    3.8972 H         1 SUB1        0.035
     49 H232       24.8633   -3.1321    3.1647 H         1 SUB1        0.035
     50 H241       22.6238   -1.4367    4.2783 H         1 SUB1        0.049
     51 H242       23.5065   -2.7109    5.1859 H         1 SUB1        0.049
     52 H281       21.8938   -0.3276    2.2517 H         1 SUB1        0.188
     53 H291       23.1802    2.3589    2.5221 H         1 SUB1        0.080
     54 H321       21.3643    3.3767    1.2561 H         1 SUB1        0.035
     55 H322       20.5542    1.7852    1.0634 H         1 SUB1        0.035
     56 H331       21.4679    2.3065   -1.0154 H         1 SUB1        0.049
     57 H332       22.5522    1.0704   -0.2924 H         1 SUB1        0.049
     58 H371       21.8006    3.8854    3.6228 H         1 SUB1        0.190
     59 H381       20.2451    2.6723    5.8154 H         1 SUB1        0.078
     60 H411       21.2571    5.4579    5.1204 H         1 SUB1        0.036
     61 H421       22.7582    3.9115    6.2458 H         1 SUB1        0.027
     62 H422       21.5343    3.6193    7.5276 H         1 SUB1        0.027
     63 H431       18.9415    5.8042    5.8205 H         1 SUB1        0.024
     64 H432       20.0765    6.3600    7.0970 H         1 SUB1        0.024
     65 H433       19.2109    4.7972    7.2834 H         1 SUB1        0.024
     66 H441       22.9424    6.2662    6.9511 H         1 SUB1        0.023
     67 H442       23.2924    5.1448    8.3100 H         1 SUB1        0.023
     68 H443       21.7072    5.9853    8.2248 H         1 SUB1        0.023
     69 H31        27.0821   -4.1151   -3.7573 H         1 SUB1        0.047
     70 H32        27.1699   -5.5769   -2.7171 H         1 SUB1        0.047
     71 H33        28.6798   -4.7816   -3.2780 H         1 SUB1        0.047
     72 H41        26.3922   -2.4549   -2.6354 H         1 SUB1        0.188
     73 H51        27.4970   -1.9381    0.0712 H         1 SUB1        0.082
     74 H61        27.0711    0.5107   -0.5375 H         1 SUB1        0.046
     75 H62        26.7784   -0.0583   -2.2160 H         1 SUB1        0.046
     76 H81        29.3020   -0.2428    0.5568 H         1 SUB1        0.054
     77 H91        31.7417   -0.3524    0.1528 H         1 SUB1        0.055
     78 H101       28.5974   -0.3300   -3.6647 H         1 SUB1        0.054
     79 H111       31.0377   -0.4498   -4.0599 H         1 SUB1        0.055
     80 H131       33.4433    0.4325   -2.5672 H         1 SUB1        0.064
     81 H132       33.2145   -1.2866   -3.0349 H         1 SUB1        0.064
@<TRIPOS>BOND
     1    1    2 2  
     2    1    3 1  
     3    5    4 1  
     4   17    5 1  
     5    5    6 1  
     6    6    7 1  
     7    7   10 ar 
     8    7    8 ar 
     9    8    9 ar 
    10    9   12 ar 
    11   12   13 1  
    12   11   12 ar 
    13   10   11 ar 
    14   13   14 1  
    15   14   16 2  
    16   14   15 2  
    17   17   18 2  
    18   20   21 1  
    19   20   23 1  
    20   19   20 1  
    21   23   24 1  
    22   24   25 1  
    23   25   26 2  
    24   25   27 2  
    25   21   22 2  
    26   29   30 1  
    27   29   32 1  
    28   28   29 1  
    29   32   33 1  
    30   33   34 1  
    31   34   35 2  
    32   34   36 2  
    33   30   31 2  
    34   38   39 1  
    35   38   41 1  
    36   37   38 1  
    37   41   42 1  
    38   41   43 1  
    39   42   44 1  
    40   39   45 2  
    41   39   40 2  
    42   21   28 am 
    43   30   37 am 
    44    4    1 am 
    45   17   19 am 
    46   19   46 1  
    47   20   47 1  
    48   23   48 1  
    49   23   49 1  
    50   24   50 1  
    51   24   51 1  
    52   28   52 1  
    53   29   53 1  
    54   32   54 1  
    55   32   55 1  
    56   33   56 1  
    57   33   57 1  
    58   37   58 1  
    59   38   59 1  
    60   41   60 1  
    61   42   61 1  
    62   42   62 1  
    63   43   63 1  
    64   43   64 1  
    65   43   65 1  
    66   44   66 1  
    67   44   67 1  
    68   44   68 1  
    69    3   69 1  
    70    3   70 1  
    71    3   71 1  
    72    4   72 1  
    73    5   73 1  
    74    6   74 1  
    75    6   75 1  
    76    8   76 1  
    77    9   77 1  
    78   10   78 1  
    79   11   79 1  
    80   13   80 1  
    81   13   81 1  
@<TRIPOS>SUBSTRUCTURE
     1 SUB1        1 GROUP

