1b3g_ligand
  -I-interpret- 

 66 65  0  0  0  0  0  0  0  0999 V2000
    7.0190   16.7670   15.2900 N   0  3  0  0  0
    6.5830   18.0800   14.6910 C   0  0  0  0  0
    5.3130   18.6050   15.3930 C   0  0  0  0  0
    4.6050   17.8200   16.0220 O   0  0  0  0  0
    6.3510   17.9640   13.1910 C   0  0  0  0  0
    5.3090   16.9790   12.6980 C   0  0  0  0  0
    5.2500   16.7760   11.1990 C   0  0  0  0  0
    6.5560   16.1890   10.6030 C   0  0  0  0  0
    6.6030   14.7040   10.9230 N   0  3  0  0  0
    5.1170   19.8870   15.4630 N   0  0  0  0  0
    3.9870   20.5050   16.1490 C   0  0  0  0  0
    2.7000   20.5130   15.3080 C   0  0  0  0  0
    2.6660   20.9040   14.1510 O   0  0  0  0  0
    4.2470   21.9150   16.6540 C   0  0  0  0  0
    5.4060   21.8220   17.6980 C   0  0  0  0  0
    3.0410   22.5230   17.4160 C   0  0  0  0  0
    5.9390   23.2060   18.0320 C   0  0  0  0  0
    1.6200   20.0180   15.9740 N   0  0  0  0  0
    0.3140   19.9840   15.3770 C   0  0  0  0  0
   -0.6770   20.8030   16.2530 C   0  0  0  0  0
   -1.5740   21.3820   15.6570 O   0  0  0  0  0
   -0.3030   18.5920   15.2490 C   0  0  0  0  0
   -1.4270   18.6790   14.1740 C   0  0  0  0  0
   -2.2020   17.3580   14.1790 C   0  0  0  0  0
   -3.0300   17.2910   12.8620 C   0  0  0  0  0
   -3.6650   18.6220   12.6160 N   0  3  0  0  0
   -0.5280   20.9380   17.4690 O   0  5  0  0  0
    6.4070   16.5266   16.0540 H   0  0  0  0  0
    7.3901   18.8096   14.8534 H   0  0  0  0  0
    7.3102   17.6788   12.7343 H   0  0  0  0  0
    6.0545   18.9597   12.8295 H   0  0  0  0  0
    4.3230   17.3372   13.0289 H   0  0  0  0  0
    5.5198   16.0044   13.1624 H   0  0  0  0  0
    5.0564   17.7487   10.7231 H   0  0  0  0  0
    4.4233   16.0864   10.9732 H   0  0  0  0  0
    7.4268   16.6928   11.0478 H   0  0  0  0  0
    6.5654   16.3348    9.5128 H   0  0  0  0  0
    6.6010   14.5755   11.9228 H   0  0  0  0  0
    7.4421   14.3029   10.5344 H   0  0  0  0  0
    5.7970   14.2486   10.5241 H   0  0  0  0  0
    5.7818   20.4879   15.0192 H   0  0  0  0  0
    3.7920   19.8808   17.0335 H   0  0  0  0  0
    4.5233   22.5650   15.8107 H   0  0  0  0  0
    6.2206   21.2123   17.2802 H   0  0  0  0  0
    5.0280   21.3490   18.6164 H   0  0  0  0  0
    2.1713   22.5747   16.7445 H   0  0  0  0  0
    3.2981   23.5352   17.7615 H   0  0  0  0  0
    2.7981   21.8905   18.2826 H   0  0  0  0  0
    6.3307   23.6782   17.1190 H   0  0  0  0  0
    6.7457   23.1189   18.7748 H   0  0  0  0  0
    5.1263   23.8224   18.4439 H   0  0  0  0  0
    1.7395   19.6689   16.9034 H   0  0  0  0  0
    0.3863   20.4321   14.3750 H   0  0  0  0  0
   -0.7287   18.2790   16.2138 H   0  0  0  0  0
    0.4633   17.8683   14.9343 H   0  0  0  0  0
   -0.9809   18.8445   13.1822 H   0  0  0  0  0
   -2.1069   19.5099   14.4134 H   0  0  0  0  0
   -2.8759   17.3221   15.0476 H   0  0  0  0  0
   -1.5004   16.5120   14.2241 H   0  0  0  0  0
   -3.8109   16.5220   12.9564 H   0  0  0  0  0
   -2.3663   17.0384   12.0219 H   0  0  0  0  0
   -4.2793   18.8480   13.3825 H   0  0  0  0  0
   -4.1951   18.5882   11.7593 H   0  0  0  0  0
   -2.9487   19.3272   12.5402 H   0  0  0  0  0
    7.9642   16.8502   15.6301 H   0  0  0  0  0
    6.9772   16.0463   14.5865 H   0  0  0  0  0
  3  2  1  0  0  0
  2  5  1  0  0  0
  2  1  1  0  0  0
  5  6  1  0  0  0
  6  7  1  0  0  0
  7  8  1  0  0  0
  8  9  1  0  0  0
  3  4  2  0  0  0
 12 11  1  0  0  0
 11 14  1  0  0  0
 11 10  1  0  0  0
 14 15  1  0  0  0
 14 16  1  0  0  0
 15 17  1  0  0  0
 12 13  2  0  0  0
 19 20  1  0  0  0
 19 22  1  0  0  0
 18 19  1  0  0  0
 22 23  1  0  0  0
 23 24  1  0  0  0
 24 25  1  0  0  0
 25 26  1  0  0  0
 20 27  1  0  0  0
 20 21  2  0  0  0
 10  3  1  0  0  0
 12 18  1  0  0  0
  1 28  1  0  0  0
  2 29  1  0  0  0
  5 30  1  0  0  0
  5 31  1  0  0  0
  6 32  1  0  0  0
  6 33  1  0  0  0
  7 34  1  0  0  0
  7 35  1  0  0  0
  8 36  1  0  0  0
  8 37  1  0  0  0
  9 38  1  0  0  0
  9 39  1  0  0  0
  9 40  1  0  0  0
 10 41  1  0  0  0
 11 42  1  0  0  0
 14 43  1  0  0  0
 15 44  1  0  0  0
 15 45  1  0  0  0
 16 46  1  0  0  0
 16 47  1  0  0  0
 16 48  1  0  0  0
 17 49  1  0  0  0
 17 50  1  0  0  0
 17 51  1  0  0  0
 18 52  1  0  0  0
 19 53  1  0  0  0
 22 54  1  0  0  0
 22 55  1  0  0  0
 23 56  1  0  0  0
 23 57  1  0  0  0
 24 58  1  0  0  0
 24 59  1  0  0  0
 25 60  1  0  0  0
 25 61  1  0  0  0
 26 62  1  0  0  0
 26 63  1  0  0  0
 26 64  1  0  0  0
  1 65  1  0  0  0
  1 66  1  0  0  0
M  END
$$$$
