### 
### Created by X-TOOL on Mon Oct 24 23:45:07 2005
### 

@<TRIPOS>MOLECULE
1b3g_ligand
   66    65     1     0     0
SMALL
GAST_HUCK


@<TRIPOS>ATOM
      1 N           7.0190   16.7670   15.2900 N.4       1 SUB1        0.238
      2 CA          6.5830   18.0800   14.6910 C.3       1 SUB1        0.065
      3 C           5.3130   18.6050   15.3930 C.2       1 SUB1        0.227
      4 O           4.6050   17.8200   16.0220 O.2       1 SUB1       -0.391
      5 CB          6.3510   17.9640   13.1910 C.3       1 SUB1        0.008
      6 CG          5.3090   16.9790   12.6980 C.3       1 SUB1       -0.041
      7 CD          5.2500   16.7760   11.1990 C.3       1 SUB1       -0.012
      8 CE          6.5560   16.1890   10.6030 C.3       1 SUB1       -0.035
      9 NZ          6.6030   14.7040   10.9230 N.4       1 SUB1        0.219
     10 N           5.1170   19.8870   15.4630 N.am      1 SUB1       -0.261
     11 CA          3.9870   20.5050   16.1490 C.3       1 SUB1        0.134
     12 C           2.7000   20.5130   15.3080 C.2       1 SUB1        0.205
     13 O           2.6660   20.9040   14.1510 O.2       1 SUB1       -0.394
     14 CB          4.2470   21.9150   16.6540 C.3       1 SUB1       -0.004
     15 CG1         5.4060   21.8220   17.6980 C.3       1 SUB1       -0.049
     16 CG2         3.0410   22.5230   17.4160 C.3       1 SUB1       -0.058
     17 CD1         5.9390   23.2060   18.0320 C.3       1 SUB1       -0.065
     18 N           1.6200   20.0180   15.9740 N.am      1 SUB1       -0.268
     19 CA          0.3140   19.9840   15.3770 C.3       1 SUB1        0.081
     20 C          -0.6770   20.8030   16.2530 C.2       1 SUB1        0.053
     21 O          -1.5740   21.3820   15.6570 O.co2     1 SUB1       -0.564
     22 CB         -0.3030   18.5920   15.2490 C.3       1 SUB1       -0.018
     23 CG         -1.4270   18.6790   14.1740 C.3       1 SUB1       -0.043
     24 CD         -2.2020   17.3580   14.1790 C.3       1 SUB1       -0.012
     25 CE         -3.0300   17.2910   12.8620 C.3       1 SUB1       -0.035
     26 NZ         -3.6650   18.6220   12.6160 N.4       1 SUB1        0.219
     27 OXT        -0.5280   20.9380   17.4690 O.co2     1 SUB1       -0.564
     28 H11         6.4070   16.5266   16.0540 H         1 SUB1        0.201
     29 H21         7.3901   18.8096   14.8534 H         1 SUB1        0.110
     30 H51         7.3102   17.6788   12.7343 H         1 SUB1        0.035
     31 H52         6.0545   18.9597   12.8295 H         1 SUB1        0.035
     32 H61         4.3230   17.3372   13.0289 H         1 SUB1        0.027
     33 H62         5.5198   16.0044   13.1624 H         1 SUB1        0.027
     34 H71         5.0564   17.7487   10.7231 H         1 SUB1        0.032
     35 H72         4.4233   16.0864   10.9732 H         1 SUB1        0.032
     36 H81         7.4268   16.6928   11.0478 H         1 SUB1        0.081
     37 H82         6.5654   16.3348    9.5128 H         1 SUB1        0.081
     38 H91         6.6010   14.5755   11.9228 H         1 SUB1        0.199
     39 H92         7.4421   14.3029   10.5344 H         1 SUB1        0.199
     40 H93         5.7970   14.2486   10.5241 H         1 SUB1        0.199
     41 H101        5.7818   20.4879   15.0192 H         1 SUB1        0.189
     42 H111        3.7920   19.8808   17.0335 H         1 SUB1        0.080
     43 H141        4.5233   22.5650   15.8107 H         1 SUB1        0.034
     44 H151        6.2206   21.2123   17.2802 H         1 SUB1        0.027
     45 H152        5.0280   21.3490   18.6164 H         1 SUB1        0.027
     46 H161        2.1713   22.5747   16.7445 H         1 SUB1        0.023
     47 H162        3.2981   23.5352   17.7615 H         1 SUB1        0.023
     48 H163        2.7981   21.8905   18.2826 H         1 SUB1        0.023
     49 H171        6.3307   23.6782   17.1190 H         1 SUB1        0.023
     50 H172        6.7457   23.1189   18.7748 H         1 SUB1        0.023
     51 H173        5.1263   23.8224   18.4439 H         1 SUB1        0.023
     52 H181        1.7395   19.6689   16.9034 H         1 SUB1        0.190
     53 H191        0.3863   20.4321   14.3750 H         1 SUB1        0.078
     54 H221       -0.7287   18.2790   16.2138 H         1 SUB1        0.032
     55 H222        0.4633   17.8683   14.9343 H         1 SUB1        0.032
     56 H231       -0.9809   18.8445   13.1822 H         1 SUB1        0.027
     57 H232       -2.1069   19.5099   14.4134 H         1 SUB1        0.027
     58 H241       -2.8759   17.3221   15.0476 H         1 SUB1        0.032
     59 H242       -1.5004   16.5120   14.2241 H         1 SUB1        0.032
     60 H251       -3.8109   16.5220   12.9564 H         1 SUB1        0.081
     61 H252       -2.3663   17.0384   12.0219 H         1 SUB1        0.081
     62 H261       -4.2793   18.8480   13.3825 H         1 SUB1        0.199
     63 H262       -4.1951   18.5882   11.7593 H         1 SUB1        0.199
     64 H263       -2.9487   19.3272   12.5402 H         1 SUB1        0.199
     65 H12         7.9642   16.8502   15.6301 H         1 SUB1        0.201
     66 H13         6.9772   16.0463   14.5865 H         1 SUB1        0.201
@<TRIPOS>BOND
     1    3    2 1  
     2    2    5 1  
     3    2    1 1  
     4    5    6 1  
     5    6    7 1  
     6    7    8 1  
     7    8    9 1  
     8    3    4 2  
     9   12   11 1  
    10   11   14 1  
    11   11   10 1  
    12   14   15 1  
    13   14   16 1  
    14   15   17 1  
    15   12   13 2  
    16   19   20 1  
    17   19   22 1  
    18   18   19 1  
    19   22   23 1  
    20   23   24 1  
    21   24   25 1  
    22   25   26 1  
    23   20   27 2  
    24   20   21 2  
    25   10    3 am 
    26   12   18 am 
    27    1   28 1  
    28    2   29 1  
    29    5   30 1  
    30    5   31 1  
    31    6   32 1  
    32    6   33 1  
    33    7   34 1  
    34    7   35 1  
    35    8   36 1  
    36    8   37 1  
    37    9   38 1  
    38    9   39 1  
    39    9   40 1  
    40   10   41 1  
    41   11   42 1  
    42   14   43 1  
    43   15   44 1  
    44   15   45 1  
    45   16   46 1  
    46   16   47 1  
    47   16   48 1  
    48   17   49 1  
    49   17   50 1  
    50   17   51 1  
    51   18   52 1  
    52   19   53 1  
    53   22   54 1  
    54   22   55 1  
    55   23   56 1  
    56   23   57 1  
    57   24   58 1  
    58   24   59 1  
    59   25   60 1  
    60   25   61 1  
    61   26   62 1  
    62   26   63 1  
    63   26   64 1  
    64    1   65 1  
    65    1   66 1  
@<TRIPOS>SUBSTRUCTURE
     1 SUB1        1 GROUP

