1u2y_ligand
  -I-interpret- 

 25 25  0  0  0  0  0  0  0  0999 V2000
    9.1350   16.4340   42.9910 C   0  0  0  0  0
   10.2050   17.2690   42.8140 N   0  0  0  0  0
    8.4950   16.3800   44.3910 C   0  0  0  0  0
    8.6150   15.7960   41.8660 N   0  0  0  0  0
   10.7640   17.3790   41.6350 O   0  0  0  0  0
    9.3840   16.2620   45.5060 O   0  0  0  0  0
    7.3450   15.3510   44.5020 C   0  0  0  0  0
    6.5500   15.7180   45.6290 O   0  0  0  0  0
    6.4930   15.3880   43.2420 C   0  0  0  0  0
    5.3840   14.4830   43.3570 O   0  0  0  0  0
    7.4210   14.9360   42.0700 C   0  0  0  0  0
    6.6430   14.9140   40.7310 C   0  0  0  0  0
    6.0150   16.1700   40.4700 O   0  0  0  0  0
    9.7772   15.5706   43.2191 H   0  0  0  0  0
    8.0213   17.3654   44.5114 H   0  0  0  0  0
    9.3965   15.1756   41.4529 H   0  0  0  0  0
    8.8795   16.2383   46.3107 H   0  0  0  0  0
    7.7552   14.3399   44.6412 H   0  0  0  0  0
    5.8329   15.1021   45.7233 H   0  0  0  0  0
    6.1200   16.4075   43.0647 H   0  0  0  0  0
    4.8477   14.7339   44.0999 H   0  0  0  0  0
    7.7672   13.9170   42.2977 H   0  0  0  0  0
    5.8713   14.1316   40.7788 H   0  0  0  0  0
    7.3440   14.6883   39.9139 H   0  0  0  0  0
    5.5476   16.1236   39.6443 H   0  0  0  0  0
  1  2  1  0  0  0
  1  3  1  0  0  0
  1  4  1  0  0  0
  2  5  2  0  0  0
  3  6  1  0  0  0
  3  7  1  0  0  0
  4 11  1  0  0  0
  7  8  1  0  0  0
  7  9  1  0  0  0
  9 10  1  0  0  0
  9 11  1  0  0  0
 11 12  1  0  0  0
 12 13  1  0  0  0
  1 14  1  0  0  0
  3 15  1  0  0  0
  4 16  1  0  0  0
  6 17  1  0  0  0
  7 18  1  0  0  0
  8 19  1  0  0  0
  9 20  1  0  0  0
 10 21  1  0  0  0
 11 22  1  0  0  0
 12 23  1  0  0  0
 12 24  1  0  0  0
 13 25  1  0  0  0
M  END
$$$$
