### 
### Created by X-TOOL on Mon Oct 24 23:30:02 2005
### 

@<TRIPOS>MOLECULE
1u2y_ligand
   25    25     1     0     0
SMALL
GAST_HUCK


@<TRIPOS>ATOM
      1 C1          9.1350   16.4340   42.9910 C.3       1 SUB1        0.187
      2 N1         10.2050   17.2690   42.8140 N.2       1 SUB1       -0.039
      3 C2          8.4950   16.3800   44.3910 C.3       1 SUB1        0.127
      4 N5          8.6150   15.7960   41.8660 N.3       1 SUB1       -0.278
      5 O7         10.7640   17.3790   41.6350 O.2       1 SUB1       -0.190
      6 O2          9.3840   16.2620   45.5060 O.3       1 SUB1       -0.385
      7 C3          7.3450   15.3510   44.5020 C.3       1 SUB1        0.112
      8 O3          6.5500   15.7180   45.6290 O.3       1 SUB1       -0.387
      9 C4          6.4930   15.3880   43.2420 C.3       1 SUB1        0.101
     10 O4          5.3840   14.4830   43.3570 O.3       1 SUB1       -0.387
     11 C5          7.4210   14.9360   42.0700 C.3       1 SUB1        0.062
     12 C6          6.6430   14.9140   40.7310 C.3       1 SUB1        0.062
     13 O6          6.0150   16.1700   40.4700 O.3       1 SUB1       -0.393
     14 H11         9.7772   15.5706   43.2191 H         1 SUB1        0.084
     15 H31         8.0213   17.3654   44.5114 H         1 SUB1        0.066
     16 H41         9.3965   15.1756   41.4529 H         1 SUB1        0.125
     17 H61         8.8795   16.2383   46.3107 H         1 SUB1        0.210
     18 H71         7.7552   14.3399   44.6412 H         1 SUB1        0.065
     19 H81         5.8329   15.1021   45.7233 H         1 SUB1        0.210
     20 H91         6.1200   16.4075   43.0647 H         1 SUB1        0.064
     21 H101        4.8477   14.7339   44.0999 H         1 SUB1        0.210
     22 H111        7.7672   13.9170   42.2977 H         1 SUB1        0.051
     23 H121        5.8713   14.1316   40.7788 H         1 SUB1        0.057
     24 H122        7.3440   14.6883   39.9139 H         1 SUB1        0.057
     25 H131        5.5476   16.1236   39.6443 H         1 SUB1        0.209
@<TRIPOS>BOND
     1    1    2 1  
     2    1    3 1  
     3    1    4 1  
     4    2    5 2  
     5    3    6 1  
     6    3    7 1  
     7    4   11 1  
     8    7    8 1  
     9    7    9 1  
    10    9   10 1  
    11    9   11 1  
    12   11   12 1  
    13   12   13 1  
    14    1   14 1  
    15    3   15 1  
    16    4   16 1  
    17    6   17 1  
    18    7   18 1  
    19    8   19 1  
    20    9   20 1  
    21   10   21 1  
    22   11   22 1  
    23   12   23 1  
    24   12   24 1  
    25   13   25 1  
@<TRIPOS>SUBSTRUCTURE
     1 SUB1        1 GROUP

