1nvq_ligand
  -I-interpret- 

 61 68  0  0  0  0  0  0  0  0999 V2000
    7.2799   11.0288   19.6420 H   0  0  0  0  0
    0.4495    5.4336   17.9836 H   0  0  0  0  0
   -0.8961    7.0446   19.3436 H   0  0  0  0  0
    0.1973    9.0771   20.3403 H   0  0  0  0  0
    2.5824    9.5210   19.9978 H   0  0  0  0  0
    9.7158    7.8016   16.9559 H   0  0  0  0  0
   11.3489    6.4781   15.6313 H   0  0  0  0  0
   10.5458    4.3602   14.4760 H   0  0  0  0  0
    8.2070    3.6394   14.6726 H   0  0  0  0  0
    2.4447    3.9188   17.7955 H   0  0  0  0  0
    1.3008    4.0146   15.7992 H   0  0  0  0  0
    2.0576    5.6107   15.4463 H   0  0  0  0  0
    3.1495    2.8386   14.6822 H   0  0  0  0  0
    1.2639    3.7623   13.3394 H   0  0  0  0  0
    2.0941    5.1600   13.0530 H   0  0  0  0  0
    2.1970    3.7306   11.1328 H   0  0  0  0  0
    3.8181    3.9790   11.8527 H   0  0  0  0  0
    2.9121    2.4537   12.1652 H   0  0  0  0  0
    5.0489    4.1669   13.5372 H   0  0  0  0  0
    5.0130    7.6589   13.4144 H   0  0  0  0  0
    6.2313    6.3630   13.6246 H   0  0  0  0  0
    4.9217    6.1853   12.4005 H   0  0  0  0  0
    5.0899    1.9912   15.2552 H   0  0  0  0  0
    6.6196    2.7888   14.7739 H   0  0  0  0  0
    6.3228    2.3650   16.4993 H   0  0  0  0  0
    8.2700    9.9540   17.2910 O   0  0  0  0  0
    7.7630    9.3100   18.4550 C   0  0  0  0  0
    6.9180   10.1940   19.2270 N   0  0  0  0  0
    5.6270    9.8480   19.3640 C   0  0  0  0  0
    4.7470   10.4480   19.9630 O   0  0  0  0  0
    5.5330    8.5650   18.6030 C   0  0  0  0  0
    4.3050    7.7170   18.4090 C   0  0  0  0  0
    2.9460    7.7620   18.7970 C   0  0  0  0  0
    2.3100    6.5900   18.2270 C   0  0  0  0  0
    0.9100    6.3140   18.4170 C   0  0  0  0  0
    0.1610    7.2210   19.1810 C   0  0  0  0  0
    0.7890    8.3860   19.7510 C   0  0  0  0  0
    2.1380    8.6360   19.5570 C   0  0  0  0  0
    3.2490    5.8750   17.5380 N   0  0  0  0  0
    4.5220    6.5310   17.6060 C   0  0  0  0  0
    5.7570    6.2170   17.0610 C   0  0  0  0  0
    6.2140    5.1320   16.2200 N   0  0  0  0  0
    7.6060    5.2810   15.9270 C   0  0  0  0  0
    8.0400    6.4960   16.5930 C   0  0  0  0  0
    9.3880    6.8940   16.4620 C   0  0  0  0  0
   10.3170    6.1570   15.7160 C   0  0  0  0  0
    9.8520    4.9520   15.0620 C   0  0  0  0  0
    8.5300    4.5440   15.1750 C   0  0  0  0  0
    6.9290    7.0700   17.2760 C   0  0  0  0  0
    6.7180    8.2500   18.0830 C   0  0  0  0  0
    5.2030    4.0730   15.7860 C   0  0  0  0  0
    4.3030    3.8480   16.8550 O   0  0  0  0  0
    3.0380    4.4870   17.0640 C   0  0  0  0  0
    2.2520    4.5570   15.6950 C   0  0  0  0  0
    3.0440    3.9210   14.5170 C   0  0  0  0  0
    2.1780    4.1690   13.2170 N   0  3  0  0  0
    2.8230    3.5400   12.0170 C   0  0  0  0  0
    4.4980    4.5210   14.4210 C   0  0  0  0  0
    4.3430    5.9660   14.3770 O   0  0  0  0  0
    5.1750    6.5710   13.3990 C   0  0  0  0  0
    5.8590    2.7140   15.5650 C   0  0  0  0  0
 28  1  1  0  0  0
 35  2  1  0  0  0
 36  3  1  0  0  0
 37  4  1  0  0  0
 38  5  1  0  0  0
 45  6  1  0  0  0
 46  7  1  0  0  0
 47  8  1  0  0  0
 48  9  1  0  0  0
 53 10  1  0  0  0
 54 11  1  0  0  0
 54 12  1  0  0  0
 55 13  1  0  0  0
 56 14  1  0  0  0
 56 15  1  0  0  0
 57 16  1  0  0  0
 57 17  1  0  0  0
 57 18  1  0  0  0
 58 19  1  0  0  0
 60 20  1  0  0  0
 60 21  1  0  0  0
 60 22  1  0  0  0
 61 23  1  0  0  0
 61 24  1  0  0  0
 61 25  1  0  0  0
 27 26  2  0  0  0
 27 28  1  0  0  0
 50 27  1  0  0  0
 29 28  1  0  0  0
 29 30  2  0  0  0
 31 29  1  0  0  0
 32 31  4  0  0  0
 50 31  4  0  0  0
 32 33  1  0  0  0
 40 32  4  0  0  0
 34 33  4  0  0  0
 33 38  4  0  0  0
 34 35  4  0  0  0
 39 34  1  0  0  0
 35 36  4  0  0  0
 36 37  4  0  0  0
 38 37  4  0  0  0
 39 40  1  0  0  0
 53 39  1  0  0  0
 41 40  4  0  0  0
 42 41  1  0  0  0
 41 49  4  0  0  0
 42 43  1  0  0  0
 51 42  1  0  0  0
 43 44  4  0  0  0
 43 48  4  0  0  0
 44 45  4  0  0  0
 44 49  1  0  0  0
 45 46  4  0  0  0
 47 46  4  0  0  0
 48 47  4  0  0  0
 49 50  4  0  0  0
 51 52  1  0  0  0
 58 51  1  0  0  0
 51 61  1  0  0  0
 52 53  1  0  0  0
 54 53  1  0  0  0
 55 54  1  0  0  0
 55 56  1  0  0  0
 58 55  1  0  0  0
 56 57  1  0  0  0
 59 58  1  0  0  0
 59 60  1  0  0  0
M  END
$$$$
