### 
### Created by X-TOOL on Tue Oct 25 00:09:15 2005
### 

@<TRIPOS>MOLECULE
1nvq_ligand
   61    68     1     0     0
SMALL
GAST_HUCK


@<TRIPOS>ATOM
      1 H281        7.2799   11.0288   19.6420 H         1 SUB1        0.221
      2 H351        0.4495    5.4336   17.9836 H         1 SUB1        0.054
      3 H361       -0.8961    7.0446   19.3436 H         1 SUB1        0.057
      4 H371        0.1973    9.0771   20.3403 H         1 SUB1        0.052
      5 H381        2.5824    9.5210   19.9978 H         1 SUB1        0.058
      6 H451        9.7158    7.8016   16.9559 H         1 SUB1        0.058
      7 H461       11.3489    6.4781   15.6313 H         1 SUB1        0.052
      8 H471       10.5458    4.3602   14.4760 H         1 SUB1        0.057
      9 H481        8.2070    3.6394   14.6726 H         1 SUB1        0.054
     10 H531        2.4447    3.9188   17.7955 H         1 SUB1        0.094
     11 H541        1.3008    4.0146   15.7992 H         1 SUB1        0.037
     12 H542        2.0576    5.6107   15.4463 H         1 SUB1        0.037
     13 H551        3.1495    2.8386   14.6822 H         1 SUB1        0.088
     14 H561        1.2639    3.7623   13.3394 H         1 SUB1        0.201
     15 H562        2.0941    5.1600   13.0530 H         1 SUB1        0.201
     16 H571        2.1970    3.7306   11.1328 H         1 SUB1        0.078
     17 H572        3.8181    3.9790   11.8527 H         1 SUB1        0.078
     18 H573        2.9121    2.4537   12.1652 H         1 SUB1        0.078
     19 H581        5.0489    4.1669   13.5372 H         1 SUB1        0.071
     20 H601        5.0130    7.6589   13.4144 H         1 SUB1        0.052
     21 H602        6.2313    6.3630   13.6246 H         1 SUB1        0.052
     22 H603        4.9217    6.1853   12.4005 H         1 SUB1        0.052
     23 H611        5.0899    1.9912   15.2552 H         1 SUB1        0.028
     24 H612        6.6196    2.7888   14.7739 H         1 SUB1        0.028
     25 H613        6.3228    2.3650   16.4993 H         1 SUB1        0.028
     26 O37         8.2700    9.9540   17.2910 O.2       1 SUB1       -0.373
     27 C9          7.7630    9.3100   18.4550 C.2       1 SUB1        0.225
     28 N1          6.9180   10.1940   19.2270 N.am      1 SUB1       -0.203
     29 C8          5.6270    9.8480   19.3640 C.2       1 SUB1        0.225
     30 O5          4.7470   10.4480   19.9630 O.2       1 SUB1       -0.373
     31 C7          5.5330    8.5650   18.6030 C.ar      1 SUB1        0.053
     32 C6          4.3050    7.7170   18.4090 C.ar      1 SUB1        0.012
     33 C5          2.9460    7.7620   18.7970 C.ar      1 SUB1       -0.003
     34 C20         2.3100    6.5900   18.2270 C.ar      1 SUB1        0.071
     35 C1          0.9100    6.3140   18.4170 C.ar      1 SUB1       -0.040
     36 C2          0.1610    7.2210   19.1810 C.ar      1 SUB1       -0.073
     37 C3          0.7890    8.3860   19.7510 C.ar      1 SUB1       -0.075
     38 C4          2.1380    8.6360   19.5570 C.ar      1 SUB1       -0.068
     39 N3          3.2490    5.8750   17.5380 N.pl3     1 SUB1       -0.232
     40 C19         4.5220    6.5310   17.6060 C.ar      1 SUB1        0.106
     41 C18         5.7570    6.2170   17.0610 C.ar      1 SUB1        0.106
     42 N2          6.2140    5.1320   16.2200 N.pl3     1 SUB1       -0.227
     43 C17         7.6060    5.2810   15.9270 C.ar      1 SUB1        0.071
     44 C12         8.0400    6.4960   16.5930 C.ar      1 SUB1       -0.003
     45 C13         9.3880    6.8940   16.4620 C.ar      1 SUB1       -0.068
     46 C14        10.3170    6.1570   15.7160 C.ar      1 SUB1       -0.075
     47 C15         9.8520    4.9520   15.0620 C.ar      1 SUB1       -0.073
     48 C16         8.5300    4.5440   15.1750 C.ar      1 SUB1       -0.040
     49 C11         6.9290    7.0700   17.2760 C.ar      1 SUB1        0.012
     50 C10         6.7180    8.2500   18.0830 C.ar      1 SUB1        0.053
     51 C21         5.2030    4.0730   15.7860 C.3       1 SUB1        0.202
     52 O4          4.3030    3.8480   16.8550 O.3       1 SUB1       -0.315
     53 C25         3.0380    4.4870   17.0640 C.3       1 SUB1        0.168
     54 C24         2.2520    4.5570   15.6950 C.3       1 SUB1        0.046
     55 C23         3.0440    3.9210   14.5170 C.3       1 SUB1        0.014
     56 N4          2.1780    4.1690   13.2170 N.4       1 SUB1        0.229
     57 C28         2.8230    3.5400   12.0170 C.3       1 SUB1       -0.045
     58 C22         4.4980    4.5210   14.4210 C.3       1 SUB1        0.156
     59 O6          4.3430    5.9660   14.3770 O.3       1 SUB1       -0.369
     60 C27         5.1750    6.5710   13.3990 C.3       1 SUB1        0.037
     61 C26         5.8590    2.7140   15.5650 C.3       1 SUB1       -0.006
@<TRIPOS>BOND
     1   28    1 1  
     2   35    2 1  
     3   36    3 1  
     4   37    4 1  
     5   38    5 1  
     6   45    6 1  
     7   46    7 1  
     8   47    8 1  
     9   48    9 1  
    10   53   10 1  
    11   54   11 1  
    12   54   12 1  
    13   55   13 1  
    14   56   14 1  
    15   56   15 1  
    16   57   16 1  
    17   57   17 1  
    18   57   18 1  
    19   58   19 1  
    20   60   20 1  
    21   60   21 1  
    22   60   22 1  
    23   61   23 1  
    24   61   24 1  
    25   61   25 1  
    26   27   26 2  
    27   27   28 am 
    28   50   27 1  
    29   29   28 am 
    30   29   30 2  
    31   31   29 1  
    32   32   31 ar 
    33   50   31 ar 
    34   32   33 1  
    35   40   32 ar 
    36   34   33 ar 
    37   33   38 ar 
    38   34   35 ar 
    39   39   34 1  
    40   35   36 ar 
    41   36   37 ar 
    42   38   37 ar 
    43   39   40 1  
    44   53   39 1  
    45   41   40 ar 
    46   42   41 1  
    47   41   49 ar 
    48   42   43 1  
    49   51   42 1  
    50   43   44 ar 
    51   43   48 ar 
    52   44   45 ar 
    53   44   49 1  
    54   45   46 ar 
    55   47   46 ar 
    56   48   47 ar 
    57   49   50 ar 
    58   51   52 1  
    59   58   51 1  
    60   51   61 1  
    61   52   53 1  
    62   54   53 1  
    63   55   54 1  
    64   55   56 1  
    65   58   55 1  
    66   56   57 1  
    67   59   58 1  
    68   59   60 1  
@<TRIPOS>SUBSTRUCTURE
     1 SUB1        1 GROUP

