### 
### Created by X-TOOL on Tue Oct 25 01:36:53 2005
### 

@<TRIPOS>MOLECULE
1pyn_ligand
   77    78     1     0     0
SMALL
GAST_HUCK


@<TRIPOS>ATOM
      1 C1         34.4630   29.7880   19.7570 C.ar      1 SUB1       -0.038
      2 C2         33.7860   29.1070   20.8760 C.ar      1 SUB1        0.098
      3 C3         32.4210   29.4120   21.1260 C.ar      1 SUB1       -0.038
      4 C4         31.7080   30.3500   20.3190 C.ar      1 SUB1       -0.068
      5 C5         32.3570   31.0120   19.2290 C.ar      1 SUB1       -0.049
      6 C6         33.7460   30.7210   18.9570 C.ar      1 SUB1       -0.068
      7 C9         31.1420   31.3540   16.9830 C.3       1 SUB1        0.141
      8 N1         30.3840   32.3590   16.2500 N.am      1 SUB1       -0.240
      9 C10        30.3740   32.6090   14.9360 C.2       1 SUB1        0.322
     10 C11        30.4560   29.9660   17.2050 C.2       1 SUB1        0.203
     11 N2         29.1490   30.0250   17.4950 N.am      1 SUB1       -0.285
     12 C12        28.2950   28.8480   17.7780 C.3       1 SUB1        0.031
     13 C13        27.1690   29.3100   18.7450 C.3       1 SUB1       -0.030
     14 C14        26.6180   30.7920   20.7650 C.3       1 SUB1        0.072
     15 C15        27.6880   30.3150   19.8110 C.3       1 SUB1       -0.023
     16 O1         26.2160   29.6980   21.5980 O.3       1 SUB1       -0.315
     17 O4         31.0650   31.9610   14.1930 O.2       1 SUB1       -0.377
     18 O9         29.5560   33.5920   14.5160 O.3       1 SUB1       -0.258
     19 C8         35.6430   27.6650   21.7500 C.3       1 SUB1        0.160
     20 O8         31.1300   28.9180   17.1360 O.2       1 SUB1       -0.394
     21 C7         31.5700   31.9910   18.3610 C.3       1 SUB1        0.016
     22 C16        36.6830   28.7280   22.1950 C.2       1 SUB1        0.075
     23 C24        35.6440   26.4290   22.6740 C.2       1 SUB1        0.075
     24 O6         34.9400   26.2740   23.6170 O.co2     1 SUB1       -0.569
     25 O7         36.5590   25.4910   22.3070 O.co2     1 SUB1       -0.569
     26 C32        24.9130   29.6800   22.1840 C.ar      1 SUB1        0.106
     27 C33        24.1570   30.9050   22.4990 C.ar      1 SUB1       -0.038
     28 C34        22.8560   30.8330   23.0900 C.ar      1 SUB1       -0.074
     29 C35        22.2770   29.5560   23.3800 C.ar      1 SUB1       -0.038
     30 C36        22.9850   28.3490   23.0850 C.ar      1 SUB1        0.103
     31 C37        24.3060   28.3890   22.4870 C.ar      1 SUB1        0.118
     32 C38        25.0030   27.0990   22.2030 C.2       1 SUB1        0.251
     33 O11        25.2850   26.3340   23.1060 O.2       1 SUB1       -0.370
     34 O12        25.2800   26.8540   20.9010 O.3       1 SUB1       -0.285
     35 C39        25.9500   25.6260   20.4810 C.3       1 SUB1        0.064
     36 O13        22.3480   27.1750   23.4010 O.3       1 SUB1       -0.330
     37 O3         36.4360   29.6970   22.8330 O.co2     1 SUB1       -0.569
     38 O5         37.9350   28.4390   21.7610 O.co2     1 SUB1       -0.569
     39 O2         34.2900   28.1630   21.7740 O.3       1 SUB1       -0.276
     40 C41        28.3520   33.4330   13.6200 C.3       1 SUB1        0.090
     41 C42        27.6080   32.0830   13.9080 C.3       1 SUB1       -0.032
     42 C43        28.8000   33.4540   12.1410 C.3       1 SUB1       -0.032
     43 C44        27.3190   34.5760   13.8600 C.3       1 SUB1       -0.032
     44 H11        35.5050   29.5782   19.5442 H         1 SUB1        0.053
     45 H31        31.9098   28.9222   21.9469 H         1 SUB1        0.053
     46 H41        30.6669   30.5622   20.5339 H         1 SUB1        0.053
     47 H61        34.2471   31.2188   18.1347 H         1 SUB1        0.053
     48 H71        32.0615   31.1610   16.4110 H         1 SUB1        0.082
     49 H81        29.7900   32.9415   16.8049 H         1 SUB1        0.190
     50 H111       28.7196   30.9277   17.5223 H         1 SUB1        0.185
     51 H121       27.8452   28.4701   16.8480 H         1 SUB1        0.052
     52 H122       28.8858   28.0542   18.2584 H         1 SUB1        0.052
     53 H131       26.3751   29.8034   18.1652 H         1 SUB1        0.029
     54 H132       26.7609   28.4332   19.2691 H         1 SUB1        0.029
     55 H141       25.7580   31.1578   20.1850 H         1 SUB1        0.062
     56 H142       27.0261   31.6047   21.3838 H         1 SUB1        0.062
     57 H151       28.4752   29.8270   20.4044 H         1 SUB1        0.029
     58 H152       28.0981   31.1966   19.2967 H         1 SUB1        0.029
     59 H191       35.9065   27.3629   20.7257 H         1 SUB1        0.130
     60 H211       30.6587   32.2959   18.8963 H         1 SUB1        0.045
     61 H212       32.1951   32.8718   18.1529 H         1 SUB1        0.045
     62 H271       24.5922   31.8734   22.2801 H         1 SUB1        0.046
     63 H281       22.3107   31.7419   23.3174 H         1 SUB1        0.060
     64 H291       21.2913   29.5035   23.8280 H         1 SUB1        0.046
     65 H351       26.0714   25.6402   19.3878 H         1 SUB1        0.057
     66 H352       26.9425   25.5607   20.9508 H         1 SUB1        0.057
     67 H353       25.3435   24.7526   20.7626 H         1 SUB1        0.057
     68 H361       21.4988   27.3689   23.7802 H         1 SUB1        0.251
     69 H411       26.7392   32.0029   13.2381 H         1 SUB1        0.026
     70 H412       28.2835   31.2352   13.7213 H         1 SUB1        0.026
     71 H413       27.2592   32.0620   14.9510 H         1 SUB1        0.026
     72 H421       27.9157   33.3375   11.4972 H         1 SUB1        0.026
     73 H422       29.2872   34.4128   11.9102 H         1 SUB1        0.026
     74 H423       29.4954   32.6239   11.9479 H         1 SUB1        0.026
     75 H431       26.4582   34.4270   13.1915 H         1 SUB1        0.026
     76 H432       26.9705   34.5537   14.9031 H         1 SUB1        0.026
     77 H433       27.7795   35.5502   13.6392 H         1 SUB1        0.026
@<TRIPOS>BOND
     1    1    2 ar 
     2    6    1 ar 
     3    3    2 ar 
     4    2   39 1  
     5    4    3 ar 
     6    5    4 ar 
     7    5    6 ar 
     8   21    5 1  
     9    7    8 1  
    10   10    7 1  
    11    7   21 1  
    12    8    9 am 
    13    9   17 2  
    14    9   18 1  
    15   11   10 am 
    16   10   20 2  
    17   12   11 1  
    18   13   12 1  
    19   15   13 1  
    20   18   40 1  
    21   22   37 2  
    22   22   38 2  
    23   23   24 2  
    24   23   25 2  
    25   26   27 ar 
    26   26   31 ar 
    27   27   28 ar 
    28   28   29 ar 
    29   30   29 ar 
    30   31   30 ar 
    31   30   36 1  
    32   31   32 1  
    33   32   33 2  
    34   32   34 1  
    35   34   35 1  
    36   40   41 1  
    37   40   42 1  
    38   40   43 1  
    39   39   19 1  
    40   16   26 1  
    41   19   23 1  
    42   19   22 1  
    43   14   16 1  
    44   15   14 1  
    45    1   44 1  
    46    3   45 1  
    47    4   46 1  
    48    6   47 1  
    49    7   48 1  
    50    8   49 1  
    51   11   50 1  
    52   12   51 1  
    53   12   52 1  
    54   13   53 1  
    55   13   54 1  
    56   14   55 1  
    57   14   56 1  
    58   15   57 1  
    59   15   58 1  
    60   19   59 1  
    61   21   60 1  
    62   21   61 1  
    63   27   62 1  
    64   28   63 1  
    65   29   64 1  
    66   35   65 1  
    67   35   66 1  
    68   35   67 1  
    69   36   68 1  
    70   41   69 1  
    71   41   70 1  
    72   41   71 1  
    73   42   72 1  
    74   42   73 1  
    75   42   74 1  
    76   43   75 1  
    77   43   76 1  
    78   43   77 1  
@<TRIPOS>SUBSTRUCTURE
     1 SUB1        1 GROUP

