1pyn_ligand
  -I-interpret- 

 77 78  0  0  0  0  0  0  0  0999 V2000
   34.4630   29.7880   19.7570 C   0  0  0  0  0
   33.7860   29.1070   20.8760 C   0  0  0  0  0
   32.4210   29.4120   21.1260 C   0  0  0  0  0
   31.7080   30.3500   20.3190 C   0  0  0  0  0
   32.3570   31.0120   19.2290 C   0  0  0  0  0
   33.7460   30.7210   18.9570 C   0  0  0  0  0
   31.1420   31.3540   16.9830 C   0  0  0  0  0
   30.3840   32.3590   16.2500 N   0  0  0  0  0
   30.3740   32.6090   14.9360 C   0  0  0  0  0
   30.4560   29.9660   17.2050 C   0  0  0  0  0
   29.1490   30.0250   17.4950 N   0  0  0  0  0
   28.2950   28.8480   17.7780 C   0  0  0  0  0
   27.1690   29.3100   18.7450 C   0  0  0  0  0
   26.6180   30.7920   20.7650 C   0  0  0  0  0
   27.6880   30.3150   19.8110 C   0  0  0  0  0
   26.2160   29.6980   21.5980 O   0  0  0  0  0
   31.0650   31.9610   14.1930 O   0  0  0  0  0
   29.5560   33.5920   14.5160 O   0  0  0  0  0
   35.6430   27.6650   21.7500 C   0  0  0  0  0
   31.1300   28.9180   17.1360 O   0  0  0  0  0
   31.5700   31.9910   18.3610 C   0  0  0  0  0
   36.6830   28.7280   22.1950 C   0  0  0  0  0
   35.6440   26.4290   22.6740 C   0  0  0  0  0
   34.9400   26.2740   23.6170 O   0  0  0  0  0
   36.5590   25.4910   22.3070 O   0  5  0  0  0
   24.9130   29.6800   22.1840 C   0  0  0  0  0
   24.1570   30.9050   22.4990 C   0  0  0  0  0
   22.8560   30.8330   23.0900 C   0  0  0  0  0
   22.2770   29.5560   23.3800 C   0  0  0  0  0
   22.9850   28.3490   23.0850 C   0  0  0  0  0
   24.3060   28.3890   22.4870 C   0  0  0  0  0
   25.0030   27.0990   22.2030 C   0  0  0  0  0
   25.2850   26.3340   23.1060 O   0  0  0  0  0
   25.2800   26.8540   20.9010 O   0  0  0  0  0
   25.9500   25.6260   20.4810 C   0  0  0  0  0
   22.3480   27.1750   23.4010 O   0  0  0  0  0
   36.4360   29.6970   22.8330 O   0  0  0  0  0
   37.9350   28.4390   21.7610 O   0  5  0  0  0
   34.2900   28.1630   21.7740 O   0  0  0  0  0
   28.3520   33.4330   13.6200 C   0  0  0  0  0
   27.6080   32.0830   13.9080 C   0  0  0  0  0
   28.8000   33.4540   12.1410 C   0  0  0  0  0
   27.3190   34.5760   13.8600 C   0  0  0  0  0
   35.5050   29.5782   19.5442 H   0  0  0  0  0
   31.9098   28.9222   21.9469 H   0  0  0  0  0
   30.6669   30.5622   20.5339 H   0  0  0  0  0
   34.2471   31.2188   18.1347 H   0  0  0  0  0
   32.0615   31.1610   16.4110 H   0  0  0  0  0
   29.7900   32.9415   16.8049 H   0  0  0  0  0
   28.7196   30.9277   17.5223 H   0  0  0  0  0
   27.8452   28.4701   16.8480 H   0  0  0  0  0
   28.8858   28.0542   18.2584 H   0  0  0  0  0
   26.3751   29.8034   18.1652 H   0  0  0  0  0
   26.7609   28.4332   19.2691 H   0  0  0  0  0
   25.7580   31.1578   20.1850 H   0  0  0  0  0
   27.0261   31.6047   21.3838 H   0  0  0  0  0
   28.4752   29.8270   20.4044 H   0  0  0  0  0
   28.0981   31.1966   19.2967 H   0  0  0  0  0
   35.9065   27.3629   20.7257 H   0  0  0  0  0
   30.6587   32.2959   18.8963 H   0  0  0  0  0
   32.1951   32.8718   18.1529 H   0  0  0  0  0
   24.5922   31.8734   22.2801 H   0  0  0  0  0
   22.3107   31.7419   23.3174 H   0  0  0  0  0
   21.2913   29.5035   23.8280 H   0  0  0  0  0
   26.0714   25.6402   19.3878 H   0  0  0  0  0
   26.9425   25.5607   20.9508 H   0  0  0  0  0
   25.3435   24.7526   20.7626 H   0  0  0  0  0
   21.4988   27.3689   23.7802 H   0  0  0  0  0
   26.7392   32.0029   13.2381 H   0  0  0  0  0
   28.2835   31.2352   13.7213 H   0  0  0  0  0
   27.2592   32.0620   14.9510 H   0  0  0  0  0
   27.9157   33.3375   11.4972 H   0  0  0  0  0
   29.2872   34.4128   11.9102 H   0  0  0  0  0
   29.4954   32.6239   11.9479 H   0  0  0  0  0
   26.4582   34.4270   13.1915 H   0  0  0  0  0
   26.9705   34.5537   14.9031 H   0  0  0  0  0
   27.7795   35.5502   13.6392 H   0  0  0  0  0
  1  2  4  0  0  0
  6  1  4  0  0  0
  3  2  4  0  0  0
  2 39  1  0  0  0
  4  3  4  0  0  0
  5  4  4  0  0  0
  5  6  4  0  0  0
 21  5  1  0  0  0
  7  8  1  0  0  0
 10  7  1  0  0  0
  7 21  1  0  0  0
  8  9  1  0  0  0
  9 17  2  0  0  0
  9 18  1  0  0  0
 11 10  1  0  0  0
 10 20  2  0  0  0
 12 11  1  0  0  0
 13 12  1  0  0  0
 15 13  1  0  0  0
 18 40  1  0  0  0
 22 37  2  0  0  0
 22 38  1  0  0  0
 23 24  2  0  0  0
 23 25  1  0  0  0
 26 27  4  0  0  0
 26 31  4  0  0  0
 27 28  4  0  0  0
 28 29  4  0  0  0
 30 29  4  0  0  0
 31 30  4  0  0  0
 30 36  1  0  0  0
 31 32  1  0  0  0
 32 33  2  0  0  0
 32 34  1  0  0  0
 34 35  1  0  0  0
 40 41  1  0  0  0
 40 42  1  0  0  0
 40 43  1  0  0  0
 39 19  1  0  0  0
 16 26  1  0  0  0
 19 23  1  0  0  0
 19 22  1  0  0  0
 14 16  1  0  0  0
 15 14  1  0  0  0
  1 44  1  0  0  0
  3 45  1  0  0  0
  4 46  1  0  0  0
  6 47  1  0  0  0
  7 48  1  0  0  0
  8 49  1  0  0  0
 11 50  1  0  0  0
 12 51  1  0  0  0
 12 52  1  0  0  0
 13 53  1  0  0  0
 13 54  1  0  0  0
 14 55  1  0  0  0
 14 56  1  0  0  0
 15 57  1  0  0  0
 15 58  1  0  0  0
 19 59  1  0  0  0
 21 60  1  0  0  0
 21 61  1  0  0  0
 27 62  1  0  0  0
 28 63  1  0  0  0
 29 64  1  0  0  0
 35 65  1  0  0  0
 35 66  1  0  0  0
 35 67  1  0  0  0
 36 68  1  0  0  0
 41 69  1  0  0  0
 41 70  1  0  0  0
 41 71  1  0  0  0
 42 72  1  0  0  0
 42 73  1  0  0  0
 42 74  1  0  0  0
 43 75  1  0  0  0
 43 76  1  0  0  0
 43 77  1  0  0  0
M  END
$$$$
