### 
### Created by X-TOOL on Mon Oct 24 21:53:48 2005
### 

@<TRIPOS>MOLECULE
1o3d_ligand
   42    45     1     0     0
SMALL
GAST_HUCK


@<TRIPOS>ATOM
      1 C1         44.0740   -3.0450   26.1440 C.ar      1 SUB1        0.171
      2 C2         44.3730   -1.6480   26.1430 C.ar      1 SUB1       -0.020
      3 C3         44.2860   -0.8450   27.2840 C.ar      1 SUB1       -0.036
      4 C4         43.8980   -1.4660   28.4440 C.ar      1 SUB1        0.081
      5 C5         43.6130   -2.7750   28.5110 C.ar      1 SUB1        0.034
      6 C6         43.6830   -3.6180   27.3890 C.ar      1 SUB1       -0.007
      7 C7         44.1900   -3.7910   24.9550 C.cat     1 SUB1        0.310
      8 N1         43.9180   -5.0750   24.9340 N.pl3     1 SUB1       -0.201
      9 N2         44.5740   -3.1680   23.8560 N.pl3     1 SUB1       -0.201
     10 N3         43.7480   -1.0060   29.6280 N.pl3     1 SUB1       -0.251
     11 N4         43.2670   -3.1460   29.7330 N.2       1 SUB1       -0.310
     12 C8         43.3750   -1.9840   30.3600 C.2       1 SUB1        0.137
     13 C1'        43.1120   -1.8690   31.7450 C.ar      1 SUB1        0.067
     14 C2'        42.7840   -2.9940   32.5200 C.ar      1 SUB1       -0.051
     15 C3'        42.5220   -2.8930   33.8830 C.ar      1 SUB1       -0.066
     16 C4'        42.5840   -1.6720   34.5030 C.ar      1 SUB1       -0.057
     17 C5'        42.9040   -0.5010   33.8060 C.ar      1 SUB1        0.020
     18 C6'        43.1620   -0.6300   32.4260 C.ar      1 SUB1        0.120
     19 O6'        43.4600    0.5010   31.7040 O.3       1 SUB1       -0.323
     20 C1''       42.9640    0.7150   34.5110 C.ar      1 SUB1       -0.020
     21 C2''       44.1120    1.5220   34.5090 C.ar      1 SUB1       -0.057
     22 C3''       44.1810    2.7080   35.2320 C.ar      1 SUB1       -0.063
     23 C4''       43.0960    3.1220   35.9770 C.ar      1 SUB1       -0.063
     24 C5''       41.9460    2.3580   36.0050 C.ar      1 SUB1       -0.063
     25 C6''       41.8830    1.1720   35.2810 C.ar      1 SUB1       -0.057
     26 H21        44.6790   -1.1670   25.2340 H         1 SUB1        0.059
     27 H31        44.5080    0.2070   27.2660 H         1 SUB1        0.055
     28 H61        43.4410   -4.6660   27.4740 H         1 SUB1        0.059
     29 H81        43.6570   -5.5130   25.8060 H         1 SUB1        0.192
     30 H82        43.9720   -5.6740   24.1410 H         1 SUB1        0.192
     31 H91        44.7600   -2.1780   23.8810 H         1 SUB1        0.192
     32 H92        44.7230   -3.6300   22.9870 H         1 SUB1        0.192
     33 H101       43.8900   -0.0540   29.8930 H         1 SUB1        0.230
     34 H141       42.7320   -3.9660   32.0560 H         1 SUB1        0.064
     35 H151       42.2700   -3.7690   34.4600 H         1 SUB1        0.054
     36 H161       42.3750   -1.6210   35.5610 H         1 SUB1        0.063
     37 H211       44.9680    1.2150   33.9280 H         1 SUB1        0.061
     38 H221       45.0800    3.3060   35.2150 H         1 SUB1        0.061
     39 H231       43.1360    4.0410   36.5320 H         1 SUB1        0.060
     40 H241       41.0970    2.6830   36.5880 H         1 SUB1        0.061
     41 H251       41.0030    0.5910   35.3150 H         1 SUB1        0.061
     42 H191       43.6093    0.2654   30.7958 H         1 SUB1        0.254
@<TRIPOS>BOND
     1    1    2 ar 
     2    1    6 ar 
     3    1    7 1  
     4    2    3 ar 
     5    2   26 1  
     6    3    4 ar 
     7    3   27 1  
     8    4    5 ar 
     9    4   10 1  
    10    5    6 ar 
    11    5   11 1  
    12    6   28 1  
    13    7    8 1  
    14    7    9 1  
    15    8   29 1  
    16    8   30 1  
    17    9   31 1  
    18    9   32 1  
    19   10   12 1  
    20   10   33 1  
    21   11   12 2  
    22   12   13 1  
    23   13   14 ar 
    24   13   18 ar 
    25   14   15 ar 
    26   14   34 1  
    27   15   16 ar 
    28   15   35 1  
    29   16   17 ar 
    30   16   36 1  
    31   17   18 ar 
    32   17   20 1  
    33   18   19 1  
    34   20   21 ar 
    35   20   25 ar 
    36   21   22 ar 
    37   21   37 1  
    38   22   23 ar 
    39   22   38 1  
    40   23   24 ar 
    41   23   39 1  
    42   24   25 ar 
    43   24   40 1  
    44   25   41 1  
    45   19   42 1  
@<TRIPOS>SUBSTRUCTURE
     1 SUB1        1 GROUP

