1o3d_ligand
  -I-interpret- 

 42 45  0  0  0  0  0  0  0  0999 V2000
   44.0740   -3.0450   26.1440 C   0  0  0  0  0
   44.3730   -1.6480   26.1430 C   0  0  0  0  0
   44.2860   -0.8450   27.2840 C   0  0  0  0  0
   43.8980   -1.4660   28.4440 C   0  0  0  0  0
   43.6130   -2.7750   28.5110 C   0  0  0  0  0
   43.6830   -3.6180   27.3890 C   0  0  0  0  0
   44.1900   -3.7910   24.9550 C   0  3  0  0  0
   43.9180   -5.0750   24.9340 N   0  0  0  0  0
   44.5740   -3.1680   23.8560 N   0  0  0  0  0
   43.7480   -1.0060   29.6280 N   0  0  0  0  0
   43.2670   -3.1460   29.7330 N   0  0  0  0  0
   43.3750   -1.9840   30.3600 C   0  0  0  0  0
   43.1120   -1.8690   31.7450 C   0  0  0  0  0
   42.7840   -2.9940   32.5200 C   0  0  0  0  0
   42.5220   -2.8930   33.8830 C   0  0  0  0  0
   42.5840   -1.6720   34.5030 C   0  0  0  0  0
   42.9040   -0.5010   33.8060 C   0  0  0  0  0
   43.1620   -0.6300   32.4260 C   0  0  0  0  0
   43.4600    0.5010   31.7040 O   0  0  0  0  0
   42.9640    0.7150   34.5110 C   0  0  0  0  0
   44.1120    1.5220   34.5090 C   0  0  0  0  0
   44.1810    2.7080   35.2320 C   0  0  0  0  0
   43.0960    3.1220   35.9770 C   0  0  0  0  0
   41.9460    2.3580   36.0050 C   0  0  0  0  0
   41.8830    1.1720   35.2810 C   0  0  0  0  0
   44.6790   -1.1670   25.2340 H   0  0  0  0  0
   44.5080    0.2070   27.2660 H   0  0  0  0  0
   43.4410   -4.6660   27.4740 H   0  0  0  0  0
   43.6570   -5.5130   25.8060 H   0  0  0  0  0
   43.9720   -5.6740   24.1410 H   0  0  0  0  0
   44.7600   -2.1780   23.8810 H   0  0  0  0  0
   44.7230   -3.6300   22.9870 H   0  0  0  0  0
   43.8900   -0.0540   29.8930 H   0  0  0  0  0
   42.7320   -3.9660   32.0560 H   0  0  0  0  0
   42.2700   -3.7690   34.4600 H   0  0  0  0  0
   42.3750   -1.6210   35.5610 H   0  0  0  0  0
   44.9680    1.2150   33.9280 H   0  0  0  0  0
   45.0800    3.3060   35.2150 H   0  0  0  0  0
   43.1360    4.0410   36.5320 H   0  0  0  0  0
   41.0970    2.6830   36.5880 H   0  0  0  0  0
   41.0030    0.5910   35.3150 H   0  0  0  0  0
   43.6093    0.2654   30.7958 H   0  0  0  0  0
  1  2  4  0  0  0
  1  6  4  0  0  0
  1  7  1  0  0  0
  2  3  4  0  0  0
  2 26  1  0  0  0
  3  4  4  0  0  0
  3 27  1  0  0  0
  4  5  4  0  0  0
  4 10  1  0  0  0
  5  6  4  0  0  0
  5 11  1  0  0  0
  6 28  1  0  0  0
  7  8  1  0  0  0
  7  9  1  0  0  0
  8 29  1  0  0  0
  8 30  1  0  0  0
  9 31  1  0  0  0
  9 32  1  0  0  0
 10 12  1  0  0  0
 10 33  1  0  0  0
 11 12  2  0  0  0
 12 13  1  0  0  0
 13 14  4  0  0  0
 13 18  4  0  0  0
 14 15  4  0  0  0
 14 34  1  0  0  0
 15 16  4  0  0  0
 15 35  1  0  0  0
 16 17  4  0  0  0
 16 36  1  0  0  0
 17 18  4  0  0  0
 17 20  1  0  0  0
 18 19  1  0  0  0
 20 21  4  0  0  0
 20 25  4  0  0  0
 21 22  4  0  0  0
 21 37  1  0  0  0
 22 23  4  0  0  0
 22 38  1  0  0  0
 23 24  4  0  0  0
 23 39  1  0  0  0
 24 25  4  0  0  0
 24 40  1  0  0  0
 25 41  1  0  0  0
 19 42  1  0  0  0
M  END
$$$$
