### 
### Created by X-TOOL on Tue Oct 25 02:36:13 2005
### 

@<TRIPOS>MOLECULE
1eix_ligand
   33    34     1     0     0
SMALL
GAST_HUCK


@<TRIPOS>ATOM
      1 P          13.2430   21.5570  108.1500 P.3       1 SUB1        0.205
      2 O1P        12.9940   20.6560  109.3780 O.co2     1 SUB1       -0.535
      3 O2P        12.3660   22.7730  108.0760 O.co2     1 SUB1       -0.535
      4 O3P        13.0710   20.7450  106.9000 O.co2     1 SUB1       -0.535
      5 O5'        14.7550   21.9910  108.3280 O.3       1 SUB1       -0.320
      6 C5'        15.2860   22.8680  107.3490 C.3       1 SUB1        0.094
      7 C4'        16.6990   23.2400  107.4860 C.3       1 SUB1        0.118
      8 O4'        16.9750   24.1540  108.7070 O.3       1 SUB1       -0.337
      9 C3'        17.8060   22.2380  107.4230 C.3       1 SUB1        0.115
     10 O3'        18.7760   22.7500  106.4750 O.3       1 SUB1       -0.386
     11 C2'        18.4420   22.2760  108.8340 C.3       1 SUB1        0.138
     12 O2'        19.7260   21.8170  108.9770 O.3       1 SUB1       -0.384
     13 C1'        18.2720   23.7340  109.2020 C.3       1 SUB1        0.208
     14 N1         18.4410   24.0640  110.6990 N.am      1 SUB1       -0.125
     15 C2         17.5990   23.4370  111.6450 C.2       1 SUB1        0.333
     16 O2         16.6480   22.5620  111.2990 O.2       1 SUB1       -0.382
     17 N3         17.7920   23.7630  112.9880 N.am      1 SUB1       -0.191
     18 C4         18.7600   24.6580  113.3780 C.2       1 SUB1        0.164
     19 O4         18.8910   24.9070  114.5790 O.2       1 SUB1       -0.427
     20 C5         19.5870   25.2680  112.3740 C.2       1 SUB1        0.022
     21 C6         19.3500   24.9060  111.0640 C.2       1 SUB1        0.212
     22 O1         20.1350   25.4800  110.1090 O.3       1 SUB1       -0.289
     23 H61        14.6943   23.7949  107.3774 H         1 SUB1        0.064
     24 H62        15.1634   22.3846  106.3685 H         1 SUB1        0.064
     25 H71        16.8679   23.8705  106.6006 H         1 SUB1        0.065
     26 H91        17.4541   21.2326  107.1488 H         1 SUB1        0.065
     27 H101       19.5555   22.2075  106.4970 H         1 SUB1        0.210
     28 H111       17.8254   21.6604  109.5054 H         1 SUB1        0.068
     29 H121       20.3051   22.3199  108.4165 H         1 SUB1        0.210
     30 H131       19.0460   24.3021  108.6652 H         1 SUB1        0.099
     31 H171       17.2131   23.3359  113.6826 H         1 SUB1        0.225
     32 H201       20.3654   25.9834  112.6351 H         1 SUB1        0.005
     33 H221       20.7526   26.0720  110.5221 H         1 SUB1        0.264
@<TRIPOS>BOND
     1    1    5 1  
     2    1    4 2  
     3    1    3 2  
     4    1    2 2  
     5    5    6 1  
     6    6    7 1  
     7    7    9 1  
     8    7    8 1  
     9    8   13 1  
    10   13   14 1  
    11   13   11 1  
    12   11   12 1  
    13   11    9 1  
    14    9   10 1  
    15   14   21 am 
    16   14   15 am 
    17   15   17 am 
    18   15   16 2  
    19   17   18 am 
    20   18   20 1  
    21   18   19 2  
    22   20   21 2  
    23   21   22 1  
    24    6   23 1  
    25    6   24 1  
    26    7   25 1  
    27    9   26 1  
    28   10   27 1  
    29   11   28 1  
    30   12   29 1  
    31   13   30 1  
    32   17   31 1  
    33   20   32 1  
    34   22   33 1  
@<TRIPOS>SUBSTRUCTURE
     1 SUB1        1 GROUP

