1eix_ligand
  -I-interpret- 

 33 34  0  0  0  0  0  0  0  0999 V2000
   13.2430   21.5570  108.1500 P   0  0  0  0  0
   12.9940   20.6560  109.3780 O   0  5  0  0  0
   12.3660   22.7730  108.0760 O   0  5  0  0  0
   13.0710   20.7450  106.9000 O   0  0  0  0  0
   14.7550   21.9910  108.3280 O   0  0  0  0  0
   15.2860   22.8680  107.3490 C   0  0  0  0  0
   16.6990   23.2400  107.4860 C   0  0  0  0  0
   16.9750   24.1540  108.7070 O   0  0  0  0  0
   17.8060   22.2380  107.4230 C   0  0  0  0  0
   18.7760   22.7500  106.4750 O   0  0  0  0  0
   18.4420   22.2760  108.8340 C   0  0  0  0  0
   19.7260   21.8170  108.9770 O   0  0  0  0  0
   18.2720   23.7340  109.2020 C   0  0  0  0  0
   18.4410   24.0640  110.6990 N   0  0  0  0  0
   17.5990   23.4370  111.6450 C   0  0  0  0  0
   16.6480   22.5620  111.2990 O   0  0  0  0  0
   17.7920   23.7630  112.9880 N   0  0  0  0  0
   18.7600   24.6580  113.3780 C   0  0  0  0  0
   18.8910   24.9070  114.5790 O   0  0  0  0  0
   19.5870   25.2680  112.3740 C   0  0  0  0  0
   19.3500   24.9060  111.0640 C   0  0  0  0  0
   20.1350   25.4800  110.1090 O   0  0  0  0  0
   14.6943   23.7949  107.3774 H   0  0  0  0  0
   15.1634   22.3846  106.3685 H   0  0  0  0  0
   16.8679   23.8705  106.6006 H   0  0  0  0  0
   17.4541   21.2326  107.1488 H   0  0  0  0  0
   19.5555   22.2075  106.4970 H   0  0  0  0  0
   17.8254   21.6604  109.5054 H   0  0  0  0  0
   20.3051   22.3199  108.4165 H   0  0  0  0  0
   19.0460   24.3021  108.6652 H   0  0  0  0  0
   17.2131   23.3359  113.6826 H   0  0  0  0  0
   20.3654   25.9834  112.6351 H   0  0  0  0  0
   20.7526   26.0720  110.5221 H   0  0  0  0  0
  1  5  1  0  0  0
  1  4  2  0  0  0
  1  3  1  0  0  0
  1  2  1  0  0  0
  5  6  1  0  0  0
  6  7  1  0  0  0
  7  9  1  0  0  0
  7  8  1  0  0  0
  8 13  1  0  0  0
 13 14  1  0  0  0
 13 11  1  0  0  0
 11 12  1  0  0  0
 11  9  1  0  0  0
  9 10  1  0  0  0
 14 21  1  0  0  0
 14 15  1  0  0  0
 15 17  1  0  0  0
 15 16  2  0  0  0
 17 18  1  0  0  0
 18 20  1  0  0  0
 18 19  2  0  0  0
 20 21  2  0  0  0
 21 22  1  0  0  0
  6 23  1  0  0  0
  6 24  1  0  0  0
  7 25  1  0  0  0
  9 26  1  0  0  0
 10 27  1  0  0  0
 11 28  1  0  0  0
 12 29  1  0  0  0
 13 30  1  0  0  0
 17 31  1  0  0  0
 20 32  1  0  0  0
 22 33  1  0  0  0
M  END
$$$$
