### 
### Created by X-TOOL on Sun Jun  3 11:32:05 2007
### 

@<TRIPOS>MOLECULE
2j7e_ligand
   35    36     1     0     0
SMALL
GAST_HUCK


@<TRIPOS>ATOM
      1 C1         -1.6080    8.8230   13.6050 C.3       1 SUB1        0.072
      2 C2         -0.5400    7.7680   13.7940 C.2       1 SUB1        0.241
      3 C4          0.4590    6.0810   15.1020 C.3       1 SUB1        0.066
      4 C1B        -0.6490   10.6230   10.5800 C.2       1 SUB1        0.143
      5 C2B         0.2760   11.4620    9.6810 C.3       1 SUB1        0.158
      6 C3B        -0.3370   11.7040    8.3010 C.3       1 SUB1        0.125
      7 C4B        -1.2340   10.5090    7.8680 C.3       1 SUB1        0.118
      8 C5B        -2.4210   10.3920    8.8390 C.3       1 SUB1        0.117
      9 C6B        -3.4050    9.3070    8.4490 C.3       1 SUB1        0.077
     10 O2B         0.5560   12.7200   10.2880 O.3       1 SUB1       -0.370
     11 O3B         0.7340   11.9810    7.4100 O.3       1 SUB1       -0.384
     12 O4B        -1.7040   10.6370    6.5310 O.3       1 SUB1       -0.386
     13 N1B        -1.8940   10.1120   10.1860 N.pl3     1 SUB1       -0.249
     14 O6B        -2.8380    8.0000    8.5580 O.3       1 SUB1       -0.392
     15 N2B        -0.4590   10.1820   11.8220 N.2       1 SUB1       -0.329
     16 C7B        -1.4940    9.4490   12.2250 C.2       1 SUB1        0.001
     17 C8B        -2.3720    9.3950   11.2170 C.2       1 SUB1        0.026
     18 O1         -0.2830    7.3260   15.0490 O.3       1 SUB1       -0.279
     19 O5          0.0810    7.3100   12.8320 O.2       1 SUB1       -0.368
     20 H          -1.4784    9.5992   14.3593 H         1 SUB1        0.062
     21 H          -2.5887    8.3578   13.7044 H         1 SUB1        0.062
     22 H          -0.1089    5.2993   14.5975 H         1 SUB1        0.058
     23 H           1.4206    6.2112   14.6055 H         1 SUB1        0.058
     24 H           0.6211    5.8001   16.1426 H         1 SUB1        0.058
     25 H           1.1981   10.8941    9.5574 H         1 SUB1        0.086
     26 H          -1.0130   12.5591    8.3048 H         1 SUB1        0.068
     27 H          -0.6264    9.6047    7.9026 H         1 SUB1        0.065
     28 H          -2.9669   11.3350    8.8098 H         1 SUB1        0.070
     29 H          -3.6918    9.4668    7.4096 H         1 SUB1        0.059
     30 H          -4.2583    9.3640    9.1248 H         1 SUB1        0.059
     31 H           0.9414   12.5767   11.1555 H         1 SUB1        0.214
     32 H           1.2400   12.7264    7.7416 H         1 SUB1        0.210
     33 H          -0.9548   10.7091    5.9351 H         1 SUB1        0.210
     34 H          -2.5664    7.8449    9.4657 H         1 SUB1        0.209
     35 H          -3.3201    8.8573   11.2300 H         1 SUB1        0.067
@<TRIPOS>BOND
     1    1    2 1  
     2   16    1 1  
     3    2   18 1  
     4    2   19 2  
     5   18    3 1  
     6    4    5 1  
     7    4   13 1  
     8   15    4 2  
     9    5    6 1  
    10    5   10 1  
    11    6    7 1  
    12    6   11 1  
    13    8    7 1  
    14    7   12 1  
    15    8    9 1  
    16   13    8 1  
    17    9   14 1  
    18   13   17 1  
    19   15   16 1  
    20   16   17 2  
    21    1   20 1  
    22    1   21 1  
    23    3   22 1  
    24    3   23 1  
    25    3   24 1  
    26    5   25 1  
    27    6   26 1  
    28    7   27 1  
    29    8   28 1  
    30    9   29 1  
    31    9   30 1  
    32   10   31 1  
    33   11   32 1  
    34   12   33 1  
    35   14   34 1  
    36   17   35 1  
@<TRIPOS>SUBSTRUCTURE
     1 SUB1        1 GROUP

