2j7e_ligand
  -I-interpret- 

 35 36  0  0  0  0  0  0  0  0999 V2000
   -1.6080    8.8230   13.6050 C   0  0  0  0  0
   -0.5400    7.7680   13.7940 C   0  0  0  0  0
    0.4590    6.0810   15.1020 C   0  0  0  0  0
   -0.6490   10.6230   10.5800 C   0  0  0  0  0
    0.2760   11.4620    9.6810 C   0  0  0  0  0
   -0.3370   11.7040    8.3010 C   0  0  0  0  0
   -1.2340   10.5090    7.8680 C   0  0  0  0  0
   -2.4210   10.3920    8.8390 C   0  0  0  0  0
   -3.4050    9.3070    8.4490 C   0  0  0  0  0
    0.5560   12.7200   10.2880 O   0  0  0  0  0
    0.7340   11.9810    7.4100 O   0  0  0  0  0
   -1.7040   10.6370    6.5310 O   0  0  0  0  0
   -1.8940   10.1120   10.1860 N   0  0  0  0  0
   -2.8380    8.0000    8.5580 O   0  0  0  0  0
   -0.4590   10.1820   11.8220 N   0  0  0  0  0
   -1.4940    9.4490   12.2250 C   0  0  0  0  0
   -2.3720    9.3950   11.2170 C   0  0  0  0  0
   -0.2830    7.3260   15.0490 O   0  0  0  0  0
    0.0810    7.3100   12.8320 O   0  0  0  0  0
   -1.4784    9.5992   14.3593 H   0  0  0  0  0
   -2.5887    8.3578   13.7044 H   0  0  0  0  0
   -0.1089    5.2993   14.5975 H   0  0  0  0  0
    1.4206    6.2112   14.6055 H   0  0  0  0  0
    0.6211    5.8001   16.1426 H   0  0  0  0  0
    1.1981   10.8941    9.5574 H   0  0  0  0  0
   -1.0130   12.5591    8.3048 H   0  0  0  0  0
   -0.6264    9.6047    7.9026 H   0  0  0  0  0
   -2.9669   11.3350    8.8098 H   0  0  0  0  0
   -3.6918    9.4668    7.4096 H   0  0  0  0  0
   -4.2583    9.3640    9.1248 H   0  0  0  0  0
    0.9414   12.5767   11.1555 H   0  0  0  0  0
    1.2400   12.7264    7.7416 H   0  0  0  0  0
   -0.9548   10.7091    5.9351 H   0  0  0  0  0
   -2.5664    7.8449    9.4657 H   0  0  0  0  0
   -3.3201    8.8573   11.2300 H   0  0  0  0  0
  1  2  1  0  0  0
 16  1  1  0  0  0
  2 18  1  0  0  0
  2 19  2  0  0  0
 18  3  1  0  0  0
  4  5  1  0  0  0
  4 13  1  0  0  0
 15  4  2  0  0  0
  5  6  1  0  0  0
  5 10  1  0  0  0
  6  7  1  0  0  0
  6 11  1  0  0  0
  8  7  1  0  0  0
  7 12  1  0  0  0
  8  9  1  0  0  0
 13  8  1  0  0  0
  9 14  1  0  0  0
 13 17  1  0  0  0
 15 16  1  0  0  0
 16 17  2  0  0  0
  1 20  1  0  0  0
  1 21  1  0  0  0
  3 22  1  0  0  0
  3 23  1  0  0  0
  3 24  1  0  0  0
  5 25  1  0  0  0
  6 26  1  0  0  0
  7 27  1  0  0  0
  8 28  1  0  0  0
  9 29  1  0  0  0
  9 30  1  0  0  0
 10 31  1  0  0  0
 11 32  1  0  0  0
 12 33  1  0  0  0
 14 34  1  0  0  0
 17 35  1  0  0  0
M  END
$$$$
