2bmk_ligand
  -I-interpret- 

 36 36  0  0  0  0  0  0  0  0999 V2000
   75.6480   33.6140   62.1450 N   0  3  0  0  0
   74.6870   38.6070   62.4280 N   0  0  0  0  0
   74.5920   37.6720   63.4220 C   0  0  0  0  0
   73.8720   38.0430   64.6840 C   0  0  0  0  0
   75.1980   36.3860   63.1860 C   0  0  0  0  0
   75.1460   35.4160   64.1130 O   0  0  0  0  0
   75.8800   36.1380   61.9290 C   0  0  0  0  0
   76.5160   34.7620   61.7260 C   0  0  0  0  0
   75.9340   37.1950   60.9390 C   0  0  0  0  0
   76.6340   37.0420   59.5890 C   0  0  0  0  0
   77.3300   38.2750   59.2680 O   0  0  0  0  0
   77.6610   38.5710   57.7240 P   0  0  0  0  0
   76.4560   38.1500   56.9540 O   0  0  0  0  0
   78.9020   37.6990   57.3660 O   0  5  0  0  0
   78.0780   40.0160   57.6120 O   0  5  0  0  0
   75.3210   38.4110   61.2310 C   0  0  0  0  0
   76.4500   32.4810   62.7530 C   0  0  0  0  0
   77.5330   31.9780   61.7920 C   0  0  0  0  0
   75.4790   31.3420   63.1570 C   0  0  0  0  0
   75.5360   30.3060   62.2760 O   0  5  0  0  0
   74.6760   31.3870   64.2000 O   0  0  0  0  0
   75.1727   33.2569   61.3162 H   0  0  0  0  0
   74.9929   33.9525   62.8497 H   0  0  0  0  0
   74.3695   38.8948   65.1476 H   0  0  0  0  0
   72.8410   38.3068   64.4484 H   0  0  0  0  0
   73.8840   37.1961   65.3700 H   0  0  0  0  0
   75.5991   34.6361   63.7842 H   0  0  0  0  0
   76.7035   34.6495   60.6582 H   0  0  0  0  0
   77.4129   34.7286   62.3445 H   0  0  0  0  0
   75.8952   36.8279   58.8167 H   0  0  0  0  0
   77.3495   36.2212   59.6395 H   0  0  0  0  0
   75.3465   39.2166   60.4972 H   0  0  0  0  0
   76.9687   32.8452   63.6398 H   0  0  0  0  0
   78.1076   31.1880   62.2756 H   0  0  0  0  0
   77.0631   31.5869   60.8896 H   0  0  0  0  0
   78.1958   32.8027   61.5298 H   0  0  0  0  0
  8  1  1  0  0  0
  1 17  1  0  0  0
  3  2  4  0  0  0
  2 16  4  0  0  0
  3  4  1  0  0  0
  5  3  4  0  0  0
  5  6  1  0  0  0
  7  5  4  0  0  0
  7  8  1  0  0  0
  7  9  4  0  0  0
  9 10  1  0  0  0
  9 16  4  0  0  0
 10 11  1  0  0  0
 11 12  1  0  0  0
 12 13  2  0  0  0
 12 14  1  0  0  0
 12 15  1  0  0  0
 17 18  1  0  0  0
 17 19  1  0  0  0
 19 20  1  0  0  0
 19 21  2  0  0  0
  1 22  1  0  0  0
  1 23  1  0  0  0
  4 24  1  0  0  0
  4 25  1  0  0  0
  4 26  1  0  0  0
  6 27  1  0  0  0
  8 28  1  0  0  0
  8 29  1  0  0  0
 10 30  1  0  0  0
 10 31  1  0  0  0
 16 32  1  0  0  0
 17 33  1  0  0  0
 18 34  1  0  0  0
 18 35  1  0  0  0
 18 36  1  0  0  0
M  END
$$$$
