### 
### Created by X-TOOL on Sun Jun  3 11:17:22 2007
### 

@<TRIPOS>MOLECULE
2bmk_ligand
   36    36     1     0     0
SMALL
GAST_HUCK


@<TRIPOS>ATOM
      1 N          75.6480   33.6140   62.1450 N.4       1 SUB1        0.255
      2 N1         74.6870   38.6070   62.4280 N.ar      1 SUB1       -0.326
      3 C2         74.5920   37.6720   63.4220 C.ar      1 SUB1        0.039
      4 C2A        73.8720   38.0430   64.6840 C.3       1 SUB1       -0.022
      5 C3         75.1980   36.3860   63.1860 C.ar      1 SUB1        0.117
      6 O3A        75.1460   35.4160   64.1130 O.3       1 SUB1       -0.335
      7 C4         75.8800   36.1380   61.9290 C.ar      1 SUB1        0.048
      8 C4A        76.5160   34.7620   61.7260 C.3       1 SUB1        0.003
      9 C5         75.9340   37.1950   60.9390 C.ar      1 SUB1        0.006
     10 C5A        76.6340   37.0420   59.5890 C.3       1 SUB1        0.117
     11 OP4        77.3300   38.2750   59.2680 O.3       1 SUB1       -0.205
     12 P          77.6610   38.5710   57.7240 P.3       1 SUB1        0.617
     13 OP1        76.4560   38.1500   56.9540 O.2       1 SUB1       -0.214
     14 OP2        78.9020   37.6990   57.3660 O.2       1 SUB1       -0.214
     15 OP3        78.0780   40.0160   57.6120 O.2       1 SUB1       -0.214
     16 C6         75.3210   38.4110   61.2310 C.ar      1 SUB1       -0.013
     17 CA         76.4500   32.4810   62.7530 C.3       1 SUB1        0.089
     18 CB         77.5330   31.9780   61.7920 C.3       1 SUB1       -0.004
     19 C          75.4790   31.3420   63.1570 C.2       1 SUB1        0.392
     20 O          75.5360   30.3060   62.2760 O.2       1 SUB1       -0.256
     21 OXT        74.6760   31.3870   64.2000 O.2       1 SUB1       -0.256
     22 H          75.1727   33.2569   61.3162 H         1 SUB1        0.205
     23 H          74.9929   33.9525   62.8497 H         1 SUB1        0.205
     24 H          74.3695   38.8948   65.1476 H         1 SUB1        0.038
     25 H          72.8410   38.3068   64.4484 H         1 SUB1        0.038
     26 H          73.8840   37.1961   65.3700 H         1 SUB1        0.038
     27 H          75.5991   34.6361   63.7842 H         1 SUB1        0.245
     28 H          76.7035   34.6495   60.6582 H         1 SUB1        0.096
     29 H          77.4129   34.7286   62.3445 H         1 SUB1        0.096
     30 H          75.8952   36.8279   58.8167 H         1 SUB1        0.076
     31 H          77.3495   36.2212   59.6395 H         1 SUB1        0.076
     32 H          75.3465   39.2166   60.4972 H         1 SUB1        0.062
     33 H          76.9687   32.8452   63.6398 H         1 SUB1        0.108
     34 H          78.1076   31.1880   62.2756 H         1 SUB1        0.030
     35 H          77.0631   31.5869   60.8896 H         1 SUB1        0.030
     36 H          78.1958   32.8027   61.5298 H         1 SUB1        0.030
@<TRIPOS>BOND
     1    8    1 1  
     2    1   17 1  
     3    3    2 ar 
     4    2   16 ar 
     5    3    4 1  
     6    5    3 ar 
     7    5    6 1  
     8    7    5 ar 
     9    7    8 1  
    10    7    9 ar 
    11    9   10 1  
    12    9   16 ar 
    13   10   11 1  
    14   11   12 1  
    15   12   13 2  
    16   12   14 2  
    17   12   15 2  
    18   17   18 1  
    19   17   19 1  
    20   19   20 2  
    21   19   21 2  
    22    1   22 1  
    23    1   23 1  
    24    4   24 1  
    25    4   25 1  
    26    4   26 1  
    27    6   27 1  
    28    8   28 1  
    29    8   29 1  
    30   10   30 1  
    31   10   31 1  
    32   16   32 1  
    33   17   33 1  
    34   18   34 1  
    35   18   35 1  
    36   18   36 1  
@<TRIPOS>SUBSTRUCTURE
     1 SUB1        1 GROUP

