1ghw_ligand
  -I-interpret- 

 32 34  0  0  0  0  0  0  0  0999 V2000
   11.9400  -11.6230   22.6350 C   0  0  0  0  0
   12.3090  -10.3510   22.2020 C   0  0  0  0  0
   13.1330  -10.1780   21.1080 C   0  0  0  0  0
   13.5670  -11.3000   20.4780 C   0  0  0  0  0
   13.2300  -12.5500   20.8730 C   0  0  0  0  0
   12.4090  -12.7540   21.9610 C   0  0  0  0  0
   11.1050  -11.7470   23.7260 C   0  3  0  0  0
   10.4230  -12.8530   23.8610 N   0  0  0  0  0
   11.0150  -10.7570   24.5920 N   0  0  0  0  0
   14.3270  -11.4430   19.4570 N   0  0  0  0  0
   13.7620  -13.4800   20.1240 N   0  0  0  0  0
   14.4430  -12.7270   19.2500 C   0  0  0  0  0
   15.2270  -13.2350   18.2020 C   0  0  0  0  0
   15.2250  -14.6110   17.9170 C   0  0  0  0  0
   15.9960  -15.1170   16.8810 C   0  0  0  0  0
   16.7850  -14.2600   16.1170 C   0  0  0  0  0
   16.7960  -12.8940   16.3950 C   0  0  0  0  0
   16.0230  -12.3770   17.4340 C   0  0  0  0  0
   16.0550  -11.0250   17.6910 O   0  0  0  0  0
   11.9520   -9.4780   22.7220 H   0  0  0  0  0
   13.4300   -9.2020   20.7550 H   0  0  0  0  0
   12.1440  -13.7520   22.2720 H   0  0  0  0  0
   10.5390  -13.5750   23.1630 H   0  0  0  0  0
    9.8020  -13.0520   24.6150 H   0  0  0  0  0
   11.5910   -9.9420   24.4440 H   0  0  0  0  0
   10.4330  -10.7650   25.4010 H   0  0  0  0  0
   14.7640  -10.7570   18.9010 H   0  0  0  0  0
   14.6180  -15.2910   18.5000 H   0  0  0  0  0
   15.9840  -16.1760   16.6720 H   0  0  0  0  0
   17.3830  -14.6540   15.3080 H   0  0  0  0  0
   17.4110  -12.2440   15.7990 H   0  0  0  0  0
   15.4806  -10.8290   18.4219 H   0  0  0  0  0
  1  2  4  0  0  0
  1  6  4  0  0  0
  1  7  1  0  0  0
  2  3  4  0  0  0
  2 20  1  0  0  0
  3  4  4  0  0  0
  3 21  1  0  0  0
  4  5  4  0  0  0
  4 10  1  0  0  0
  5  6  4  0  0  0
  5 11  1  0  0  0
  6 22  1  0  0  0
  7  8  1  0  0  0
  7  9  1  0  0  0
  8 23  1  0  0  0
  8 24  1  0  0  0
  9 25  1  0  0  0
  9 26  1  0  0  0
 10 12  1  0  0  0
 10 27  1  0  0  0
 11 12  2  0  0  0
 12 13  1  0  0  0
 13 14  4  0  0  0
 13 18  4  0  0  0
 14 15  4  0  0  0
 14 28  1  0  0  0
 15 16  4  0  0  0
 15 29  1  0  0  0
 16 17  4  0  0  0
 16 30  1  0  0  0
 17 18  4  0  0  0
 17 31  1  0  0  0
 18 19  1  0  0  0
 19 32  1  0  0  0
M  END
$$$$
