### 
### Created by X-TOOL on Mon Oct 24 22:36:15 2005
### 

@<TRIPOS>MOLECULE
1ghw_ligand
   32    34     1     0     0
SMALL
GAST_HUCK


@<TRIPOS>ATOM
      1 C1         11.9400  -11.6230   22.6350 C.ar      1 SUB1        0.171
      2 C2         12.3090  -10.3510   22.2020 C.ar      1 SUB1       -0.020
      3 C3         13.1330  -10.1780   21.1080 C.ar      1 SUB1       -0.036
      4 C4         13.5670  -11.3000   20.4780 C.ar      1 SUB1        0.081
      5 C5         13.2300  -12.5500   20.8730 C.ar      1 SUB1        0.034
      6 C6         12.4090  -12.7540   21.9610 C.ar      1 SUB1       -0.007
      7 C7         11.1050  -11.7470   23.7260 C.cat     1 SUB1        0.310
      8 N1         10.4230  -12.8530   23.8610 N.pl3     1 SUB1       -0.201
      9 N2         11.0150  -10.7570   24.5920 N.pl3     1 SUB1       -0.201
     10 N3         14.3270  -11.4430   19.4570 N.pl3     1 SUB1       -0.251
     11 N4         13.7620  -13.4800   20.1240 N.2       1 SUB1       -0.310
     12 C8         14.4430  -12.7270   19.2500 C.2       1 SUB1        0.136
     13 C1'        15.2270  -13.2350   18.2020 C.ar      1 SUB1        0.065
     14 C2'        15.2250  -14.6110   17.9170 C.ar      1 SUB1       -0.052
     15 C3'        15.9960  -15.1170   16.8810 C.ar      1 SUB1       -0.067
     16 C4'        16.7850  -14.2600   16.1170 C.ar      1 SUB1       -0.066
     17 C5'        16.7960  -12.8940   16.3950 C.ar      1 SUB1       -0.026
     18 C6'        16.0230  -12.3770   17.4340 C.ar      1 SUB1        0.109
     19 O6'        16.0550  -11.0250   17.6910 O.3       1 SUB1       -0.326
     20 H21        11.9520   -9.4780   22.7220 H         1 SUB1        0.059
     21 H31        13.4300   -9.2020   20.7550 H         1 SUB1        0.055
     22 H61        12.1440  -13.7520   22.2720 H         1 SUB1        0.060
     23 H81        10.5390  -13.5750   23.1630 H         1 SUB1        0.192
     24 H82         9.8020  -13.0520   24.6150 H         1 SUB1        0.192
     25 H91        11.5910   -9.9420   24.4440 H         1 SUB1        0.192
     26 H92        10.4330  -10.7650   25.4010 H         1 SUB1        0.192
     27 H101       14.7640  -10.7570   18.9010 H         1 SUB1        0.230
     28 H141       14.6180  -15.2910   18.5000 H         1 SUB1        0.064
     29 H151       15.9840  -16.1760   16.6720 H         1 SUB1        0.054
     30 H161       17.3830  -14.6540   15.3080 H         1 SUB1        0.062
     31 H171       17.4110  -12.2440   15.7990 H         1 SUB1        0.055
     32 H191       15.4806  -10.8290   18.4219 H         1 SUB1        0.252
@<TRIPOS>BOND
     1    1    2 ar 
     2    1    6 ar 
     3    1    7 1  
     4    2    3 ar 
     5    2   20 1  
     6    3    4 ar 
     7    3   21 1  
     8    4    5 ar 
     9    4   10 1  
    10    5    6 ar 
    11    5   11 1  
    12    6   22 1  
    13    7    8 1  
    14    7    9 1  
    15    8   23 1  
    16    8   24 1  
    17    9   25 1  
    18    9   26 1  
    19   10   12 1  
    20   10   27 1  
    21   11   12 2  
    22   12   13 1  
    23   13   14 ar 
    24   13   18 ar 
    25   14   15 ar 
    26   14   28 1  
    27   15   16 ar 
    28   15   29 1  
    29   16   17 ar 
    30   16   30 1  
    31   17   18 ar 
    32   17   31 1  
    33   18   19 1  
    34   19   32 1  
@<TRIPOS>SUBSTRUCTURE
     1 SUB1        1 GROUP

