### 
### Created by X-TOOL on Mon Oct 24 21:59:28 2005
### 

@<TRIPOS>MOLECULE
1o2x_ligand
   42    44     1     0     0
SMALL
GAST_HUCK


@<TRIPOS>ATOM
      1 C1         44.0400   -2.8750   26.4080 C.ar      1 SUB1        0.171
      2 C2         44.4300   -1.5110   26.4210 C.ar      1 SUB1       -0.020
      3 C3         44.3550   -0.7170   27.5690 C.ar      1 SUB1       -0.036
      4 C4         43.8830   -1.3300   28.7040 C.ar      1 SUB1        0.081
      5 C5         43.5010   -2.6140   28.7330 C.ar      1 SUB1        0.034
      6 C6         43.5540   -3.4370   27.6240 C.ar      1 SUB1       -0.007
      7 C7         44.1340   -3.6390   25.2300 C.cat     1 SUB1        0.310
      8 N1         43.9450   -4.9280   25.2930 N.pl3     1 SUB1       -0.201
      9 N2         44.4180   -3.0420   24.0720 N.pl3     1 SUB1       -0.201
     10 N3         43.6990   -0.8630   29.8910 N.pl3     1 SUB1       -0.251
     11 N4         43.0700   -2.9850   29.9250 N.2       1 SUB1       -0.310
     12 C8         43.2310   -1.8450   30.5920 C.2       1 SUB1        0.136
     13 C1'        42.9770   -1.7160   31.9740 C.ar      1 SUB1        0.062
     14 C2'        42.5690   -2.8100   32.7540 C.ar      1 SUB1       -0.043
     15 C3'        42.3060   -2.7170   34.1290 C.ar      1 SUB1       -0.025
     16 C31'       41.8100   -4.0150   34.8700 C.3       1 SUB1        0.038
     17 C32'       40.3640   -4.2390   34.3380 C.2       1 SUB1        0.041
     18 O33'       40.1270   -5.2870   33.7780 O.co2     1 SUB1       -0.566
     19 O34'       39.5330   -3.3670   34.4860 O.co2     1 SUB1       -0.566
     20 C42'       41.9390   -3.9820   36.5100 C.3       1 SUB1        0.009
     21 C43'       42.9200   -5.0460   37.1680 C.2       1 SUB1        0.033
     22 O44'       43.2700   -6.0440   36.5670 O.co2     1 SUB1       -0.566
     23 O45'       43.3390   -4.8510   38.2960 O.co2     1 SUB1       -0.566
     24 C4'        42.4690   -1.4700   34.7460 C.ar      1 SUB1       -0.050
     25 C5'        42.8800   -0.3800   33.9980 C.ar      1 SUB1        0.042
     26 C6'        43.1300   -0.4920   32.6390 C.ar      1 SUB1        0.114
     27 O6'        43.5170    0.6360   31.9590 O.3       1 SUB1       -0.328
     28 BR5'       43.0590    1.3260   34.8980 Br        1 SUB1       -0.058
     29 H21        44.7900   -1.0370   25.5250 H         1 SUB1        0.059
     30 H31        44.6350    0.3280   27.5840 H         1 SUB1        0.055
     31 H61        43.2270   -4.4590   27.6760 H         1 SUB1        0.060
     32 H81        43.7450   -5.3490   26.1960 H         1 SUB1        0.192
     33 H82        43.9770   -5.5810   24.5340 H         1 SUB1        0.192
     34 H91        44.5520   -2.0440   24.0490 H         1 SUB1        0.192
     35 H92        44.5600   -3.5430   23.2170 H         1 SUB1        0.192
     36 H101       43.8590    0.0640   30.2250 H         1 SUB1        0.230
     37 H141       42.4550   -3.7750   32.2800 H         1 SUB1        0.060
     38 H161       42.4330   -4.8250   34.5230 H         1 SUB1        0.071
     39 H201       42.2690   -3.0060   36.8390 H         1 SUB1        0.054
     40 H202       40.9590   -4.1390   36.9360 H         1 SUB1        0.054
     41 H241       42.2770   -1.3370   35.8010 H         1 SUB1        0.060
     42 H271       43.6545    0.4212   31.0438 H         1 SUB1        0.252
@<TRIPOS>BOND
     1    1    2 ar 
     2    1    6 ar 
     3    1    7 1  
     4    2    3 ar 
     5    2   29 1  
     6    3    4 ar 
     7    3   30 1  
     8    4    5 ar 
     9    4   10 1  
    10    5    6 ar 
    11    5   11 1  
    12    6   31 1  
    13    7    8 1  
    14    7    9 1  
    15    8   32 1  
    16    8   33 1  
    17    9   34 1  
    18    9   35 1  
    19   10   12 1  
    20   10   36 1  
    21   11   12 2  
    22   12   13 1  
    23   13   14 ar 
    24   13   26 ar 
    25   14   15 ar 
    26   14   37 1  
    27   15   16 1  
    28   15   24 ar 
    29   16   17 1  
    30   16   20 1  
    31   16   38 1  
    32   17   18 2  
    33   17   19 2  
    34   20   21 1  
    35   20   39 1  
    36   20   40 1  
    37   21   22 2  
    38   21   23 2  
    39   24   25 ar 
    40   24   41 1  
    41   25   26 ar 
    42   25   28 1  
    43   26   27 1  
    44   27   42 1  
@<TRIPOS>SUBSTRUCTURE
     1 SUB1        1 GROUP

