1o2x_ligand
  -I-interpret- 

 42 44  0  0  0  0  0  0  0  0999 V2000
   44.0400   -2.8750   26.4080 C   0  0  0  0  0
   44.4300   -1.5110   26.4210 C   0  0  0  0  0
   44.3550   -0.7170   27.5690 C   0  0  0  0  0
   43.8830   -1.3300   28.7040 C   0  0  0  0  0
   43.5010   -2.6140   28.7330 C   0  0  0  0  0
   43.5540   -3.4370   27.6240 C   0  0  0  0  0
   44.1340   -3.6390   25.2300 C   0  3  0  0  0
   43.9450   -4.9280   25.2930 N   0  0  0  0  0
   44.4180   -3.0420   24.0720 N   0  0  0  0  0
   43.6990   -0.8630   29.8910 N   0  0  0  0  0
   43.0700   -2.9850   29.9250 N   0  0  0  0  0
   43.2310   -1.8450   30.5920 C   0  0  0  0  0
   42.9770   -1.7160   31.9740 C   0  0  0  0  0
   42.5690   -2.8100   32.7540 C   0  0  0  0  0
   42.3060   -2.7170   34.1290 C   0  0  0  0  0
   41.8100   -4.0150   34.8700 C   0  0  0  0  0
   40.3640   -4.2390   34.3380 C   0  0  0  0  0
   40.1270   -5.2870   33.7780 O   0  0  0  0  0
   39.5330   -3.3670   34.4860 O   0  5  0  0  0
   41.9390   -3.9820   36.5100 C   0  0  0  0  0
   42.9200   -5.0460   37.1680 C   0  0  0  0  0
   43.2700   -6.0440   36.5670 O   0  0  0  0  0
   43.3390   -4.8510   38.2960 O   0  5  0  0  0
   42.4690   -1.4700   34.7460 C   0  0  0  0  0
   42.8800   -0.3800   33.9980 C   0  0  0  0  0
   43.1300   -0.4920   32.6390 C   0  0  0  0  0
   43.5170    0.6360   31.9590 O   0  0  0  0  0
   43.0590    1.3260   34.8980 Br  0  0  0  0  0
   44.7900   -1.0370   25.5250 H   0  0  0  0  0
   44.6350    0.3280   27.5840 H   0  0  0  0  0
   43.2270   -4.4590   27.6760 H   0  0  0  0  0
   43.7450   -5.3490   26.1960 H   0  0  0  0  0
   43.9770   -5.5810   24.5340 H   0  0  0  0  0
   44.5520   -2.0440   24.0490 H   0  0  0  0  0
   44.5600   -3.5430   23.2170 H   0  0  0  0  0
   43.8590    0.0640   30.2250 H   0  0  0  0  0
   42.4550   -3.7750   32.2800 H   0  0  0  0  0
   42.4330   -4.8250   34.5230 H   0  0  0  0  0
   42.2690   -3.0060   36.8390 H   0  0  0  0  0
   40.9590   -4.1390   36.9360 H   0  0  0  0  0
   42.2770   -1.3370   35.8010 H   0  0  0  0  0
   43.6545    0.4212   31.0438 H   0  0  0  0  0
  1  2  4  0  0  0
  1  6  4  0  0  0
  1  7  1  0  0  0
  2  3  4  0  0  0
  2 29  1  0  0  0
  3  4  4  0  0  0
  3 30  1  0  0  0
  4  5  4  0  0  0
  4 10  1  0  0  0
  5  6  4  0  0  0
  5 11  1  0  0  0
  6 31  1  0  0  0
  7  8  1  0  0  0
  7  9  1  0  0  0
  8 32  1  0  0  0
  8 33  1  0  0  0
  9 34  1  0  0  0
  9 35  1  0  0  0
 10 12  1  0  0  0
 10 36  1  0  0  0
 11 12  2  0  0  0
 12 13  1  0  0  0
 13 14  4  0  0  0
 13 26  4  0  0  0
 14 15  4  0  0  0
 14 37  1  0  0  0
 15 16  1  0  0  0
 15 24  4  0  0  0
 16 17  1  0  0  0
 16 20  1  0  0  0
 16 38  1  0  0  0
 17 18  2  0  0  0
 17 19  1  0  0  0
 20 21  1  0  0  0
 20 39  1  0  0  0
 20 40  1  0  0  0
 21 22  2  0  0  0
 21 23  1  0  0  0
 24 25  4  0  0  0
 24 41  1  0  0  0
 25 26  4  0  0  0
 25 28  1  0  0  0
 26 27  1  0  0  0
 27 42  1  0  0  0
M  END
$$$$
