### 
### Created by X-TOOL on Mon Oct 24 22:53:18 2005
### 

@<TRIPOS>MOLECULE
1ols_ligand
   42    43     1     0     0
SMALL
GAST_HUCK


@<TRIPOS>ATOM
      1 N1         76.9340    0.6020   11.3740 N.ar      1 SUB1       -0.294
      2 C2         77.1640    1.8410   11.8700 C.ar      1 SUB1        0.076
      3 C2A        77.2730    1.9580   13.3810 C.3       1 SUB1       -0.003
      4 N3         77.2910    2.9400   11.0820 N.ar      1 SUB1       -0.261
      5 C4         77.1810    2.7520    9.7420 C.ar      1 SUB1        0.122
      6 N4         77.3150    3.8870    8.9960 N.pl3     1 SUB1       -0.319
      7 C5         76.9430    1.4630    9.1230 C.ar      1 SUB1        0.033
      8 C6         76.8250    0.4060   10.0470 C.ar      1 SUB1        0.007
      9 C35        76.8250    1.2690    7.6090 C.3       1 SUB1        0.056
     10 N3         75.5810    1.8700    7.0970 N.2       1 SUB1       -0.275
     11 C2         75.5550    3.1620    6.5480 C.2       1 SUB1        0.135
     12 S1         73.9200    3.5610    6.0770 S.3       1 SUB1        0.116
     13 C5         73.3190    1.9950    6.6180 C.2       1 SUB1        0.173
     14 C4         74.2650    1.1690    7.1360 C.2       1 SUB1        0.131
     15 C4A        74.0720   -0.2540    7.6840 C.3       1 SUB1        0.023
     16 C5A        71.8230    1.7960    6.4420 C.3       1 SUB1        0.083
     17 C5B        71.0200    2.7630    7.3870 C.3       1 SUB1        0.111
     18 O5G        69.6200    2.6050    7.0980 O.3       1 SUB1       -0.249
     19 P1         68.5990    3.6470    7.6560 P.3       1 SUB1        0.373
     20 O11        68.6740    4.9160    6.7000 O.3       1 SUB1       -0.257
     21 O12        68.9330    4.0400    9.0280 O.co2     1 SUB1       -0.457
     22 O13        67.2190    3.0420    7.5680 O.co2     1 SUB1       -0.457
     23 P2         68.4170    5.0790    5.1170 P.3       1 SUB1        0.158
     24 O21        67.9780    6.5490    4.9480 O.co2     1 SUB1       -0.616
     25 O22        69.7350    4.8360    4.4960 O.co2     1 SUB1       -0.616
     26 O23        67.3780    4.1230    4.6640 O.co2     1 SUB1       -0.616
     27 H31        77.1429    0.9650   13.8360 H         1 SUB1        0.045
     28 H32        76.4920    2.6371   13.7535 H         1 SUB1        0.045
     29 H33        78.2630    2.3565   13.6475 H         1 SUB1        0.045
     30 H61        77.2460    3.8397    7.9694 H         1 SUB1        0.179
     31 H62        77.4852    4.7909    9.4596 H         1 SUB1        0.179
     32 H81        76.6407   -0.5963    9.6776 H         1 SUB1        0.079
     33 H91        76.8244    0.1925    7.3828 H         1 SUB1        0.056
     34 H92        77.6849    1.7467    7.1166 H         1 SUB1        0.056
     35 H111       76.4195    3.8143    6.4335 H         1 SUB1        0.166
     36 H151       73.0127   -0.5385    7.6005 H         1 SUB1        0.060
     37 H152       74.3777   -0.2848    8.7402 H         1 SUB1        0.060
     38 H153       74.6873   -0.9571    7.1035 H         1 SUB1        0.060
     39 H161       71.5656    0.7551    6.6873 H         1 SUB1        0.077
     40 H162       71.5513    2.0044    5.3967 H         1 SUB1        0.077
     41 H171       71.3243    3.8037    7.2019 H         1 SUB1        0.069
     42 H172       71.2156    2.5052    8.4383 H         1 SUB1        0.069
@<TRIPOS>BOND
     1    1    2 ar 
     2    1    8 ar 
     3    2    3 1  
     4    2    4 ar 
     5    4    5 ar 
     6    5    6 1  
     7    5    7 ar 
     8    7    8 ar 
     9    7    9 1  
    10    9   10 1  
    11   10   11 2  
    12   10   14 1  
    13   11   12 1  
    14   12   13 1  
    15   13   14 2  
    16   13   16 1  
    17   14   15 1  
    18   16   17 1  
    19   17   18 1  
    20   18   19 1  
    21   19   20 1  
    22   19   21 2  
    23   19   22 2  
    24   20   23 1  
    25   23   24 2  
    26   23   25 2  
    27   23   26 2  
    28    3   27 1  
    29    3   28 1  
    30    3   29 1  
    31    6   30 1  
    32    6   31 1  
    33    8   32 1  
    34    9   33 1  
    35    9   34 1  
    36   11   35 1  
    37   15   36 1  
    38   15   37 1  
    39   15   38 1  
    40   16   39 1  
    41   16   40 1  
    42   17   41 1  
    43   17   42 1  
@<TRIPOS>SUBSTRUCTURE
     1 SUB1        1 GROUP

