2ctc_ligand
  -I-interpret- 

 21 21  0  0  0  0  0  0  0  0999 V2000
   -2.8910   28.7971   -8.9425 H   0  0  0  0  0
   -4.0523   30.0933   -7.7561 H   0  0  0  0  0
   -1.9754   31.6246   -9.4543 H   0  0  0  0  0
   -3.7202   31.2073   -9.5443 H   0  0  0  0  0
   -0.4688   30.9655  -11.0618 H   0  0  0  0  0
    0.0156   30.0696  -13.3101 H   0  0  0  0  0
   -1.6727   28.7013  -14.5237 H   0  0  0  0  0
   -3.8927   28.2796  -13.4427 H   0  0  0  0  0
   -4.3915   29.2680  -11.2563 H   0  0  0  0  0
   -1.0160   29.4920   -8.2580 C   0  0  0  0  0
   -0.2400   30.3370   -7.7570 O   0  5  0  0  0
   -0.7370   28.3520   -8.6920 O   0  0  0  0  0
   -2.4960   29.7350   -8.5250 C   0  0  0  0  0
   -3.1430   29.9510   -7.5210 O   0  0  0  0  0
   -2.6970   30.8080   -9.6040 C   0  0  0  0  0
   -2.4780   30.1810  -10.9420 C   0  0  0  0  0
   -1.2300   30.3900  -11.5760 C   0  0  0  0  0
   -0.9480   29.8730  -12.8540 C   0  0  0  0  0
   -1.8960   29.1080  -13.5440 C   0  0  0  0  0
   -3.1430   28.8790  -12.9390 C   0  0  0  0  0
   -3.4090   29.4290  -11.6850 C   0  0  0  0  0
 13  1  1  0  0  0
 14  2  1  0  0  0
 15  3  1  0  0  0
 15  4  1  0  0  0
 17  5  1  0  0  0
 18  6  1  0  0  0
 19  7  1  0  0  0
 20  8  1  0  0  0
 21  9  1  0  0  0
 10 11  1  0  0  0
 10 12  2  0  0  0
 13 10  1  0  0  0
 13 14  1  0  0  0
 15 13  1  0  0  0
 16 15  1  0  0  0
 17 16  4  0  0  0
 16 21  4  0  0  0
 18 17  4  0  0  0
 19 18  4  0  0  0
 19 20  4  0  0  0
 20 21  4  0  0  0
M  END
$$$$
