### 
### Created by X-TOOL on Mon Oct 24 21:55:24 2005
### 

@<TRIPOS>MOLECULE
2ctc_ligand
   21    21     1     0     0
SMALL
GAST_HUCK


@<TRIPOS>ATOM
      1 H131       -2.8910   28.7971   -8.9425 H         1 SUB1        0.084
      2 H141       -4.0523   30.0933   -7.7561 H         1 SUB1        0.215
      3 H151       -1.9754   31.6246   -9.4543 H         1 SUB1        0.049
      4 H152       -3.7202   31.2073   -9.5443 H         1 SUB1        0.049
      5 H171       -0.4688   30.9655  -11.0618 H         1 SUB1        0.056
      6 H181        0.0156   30.0696  -13.3101 H         1 SUB1        0.060
      7 H191       -1.6727   28.7013  -14.5237 H         1 SUB1        0.056
      8 H201       -3.8927   28.2796  -13.4427 H         1 SUB1        0.060
      9 H211       -4.3915   29.2680  -11.2563 H         1 SUB1        0.056
     10 C1         -1.0160   29.4920   -8.2580 C.2       1 SUB1        0.058
     11 O11        -0.2400   30.3370   -7.7570 O.co2     1 SUB1       -0.564
     12 O12        -0.7370   28.3520   -8.6920 O.co2     1 SUB1       -0.564
     13 C2         -2.4960   29.7350   -8.5250 C.3       1 SUB1        0.105
     14 O2         -3.1430   29.9510   -7.5210 O.3       1 SUB1       -0.374
     15 C3         -2.6970   30.8080   -9.6040 C.3       1 SUB1        0.019
     16 C1'        -2.4780   30.1810  -10.9420 C.ar      1 SUB1       -0.038
     17 C2'        -1.2300   30.3900  -11.5760 C.ar      1 SUB1       -0.060
     18 C3'        -0.9480   29.8730  -12.8540 C.ar      1 SUB1       -0.069
     19 C4'        -1.8960   29.1080  -13.5440 C.ar      1 SUB1       -0.069
     20 C5'        -3.1430   28.8790  -12.9390 C.ar      1 SUB1       -0.069
     21 C6'        -3.4090   29.4290  -11.6850 C.ar      1 SUB1       -0.060
@<TRIPOS>BOND
     1   13    1 1  
     2   14    2 1  
     3   15    3 1  
     4   15    4 1  
     5   17    5 1  
     6   18    6 1  
     7   19    7 1  
     8   20    8 1  
     9   21    9 1  
    10   10   11 2  
    11   10   12 2  
    12   13   10 1  
    13   13   14 1  
    14   15   13 1  
    15   16   15 1  
    16   17   16 ar 
    17   16   21 ar 
    18   18   17 ar 
    19   19   18 ar 
    20   19   20 ar 
    21   20   21 ar 
@<TRIPOS>SUBSTRUCTURE
     1 SUB1        1 GROUP

