2b7d_ligand
  -I-interpret- 

 62 65  0  0  0  0  0  0  0  0999 V2000
   -7.9230    5.4370   13.1650 C   0  0  0  0  0
   -7.6930    4.1240   12.6590 C   0  0  0  0  0
   -8.6350    3.4590   11.8700 C   0  0  0  0  0
   -9.7850    4.1340   11.6080 C   0  0  0  0  0
  -10.0400    5.3590   12.0580 C   0  0  0  0  0
   -9.1490    6.0590   12.8390 C   0  0  0  0  0
   -6.9650    6.0700   13.9520 C   0  3  0  0  0
   -7.0210    7.3760   14.0640 N   0  0  0  0  0
   -6.0370    5.3420   14.5510 N   0  0  0  0  0
  -10.8130    3.7680   10.9190 N   0  0  0  0  0
  -11.2260    5.8050   11.6730 N   0  0  0  0  0
  -11.6430    4.7620   10.9700 C   0  0  0  0  0
  -12.8930    4.7590   10.3320 C   0  0  0  0  0
  -13.7420    5.8530   10.4340 C   0  0  0  0  0
  -14.9810    5.8830    9.8200 C   0  0  0  0  0
  -15.8850    7.1050   10.0280 C   0  0  0  0  0
  -17.2940    6.5710   10.4520 C   0  0  0  0  0
  -17.3480    6.0230   11.5490 O   0  5  0  0  0
  -18.2480    6.7060    9.7060 O   0  0  0  0  0
  -15.8190    8.0660    8.7850 C   0  0  0  0  0
  -14.4710    8.8670    8.6690 C   0  0  0  0  0
  -13.8320    9.2200    9.6560 O   0  5  0  0  0
  -14.1050    9.1200    7.5370 O   0  0  0  0  0
  -15.4050    4.7890    9.0680 C   0  0  0  0  0
  -14.6050    3.6490    8.9180 C   0  0  0  0  0
  -13.3470    3.6620    9.5670 C   0  0  0  0  0
  -12.4910    2.5780    9.4680 O   0  0  0  0  0
  -15.0640    2.5660    8.1550 C   0  0  0  0  0
  -14.2250    1.8650    7.2940 C   0  0  0  0  0
  -14.6630    0.7920    6.5720 C   0  0  0  0  0
  -15.9610    0.3730    6.6680 C   0  0  0  0  0
  -16.8440    1.0230    7.4920 C   0  0  0  0  0
  -18.2800    0.5080    7.5530 C   0  0  0  0  0
  -18.7500    0.6910    8.9460 N   0  0  0  0  0
  -19.5610    1.6860    9.2340 C   0  0  0  0  0
  -19.9470    2.4590    8.3790 O   0  0  0  0  0
  -20.0080    1.9070   10.4470 N   0  0  0  0  0
  -16.3960    2.1200    8.2360 C   0  0  0  0  0
  -12.9100    2.2330    7.1000 O   0  0  0  0  0
   -6.7537    3.6238   12.8949 H   0  0  0  0  0
   -8.4573    2.4545   11.4859 H   0  0  0  0  0
   -9.3820    7.0625   13.1952 H   0  0  0  0  0
   -6.3312    7.8693   14.6307 H   0  0  0  0  0
   -7.7544    7.8980   13.5844 H   0  0  0  0  0
   -5.3274    5.7942   15.1275 H   0  0  0  0  0
   -6.0311    4.3285   14.4364 H   0  0  0  0  0
  -11.6861    6.6953   11.8630 H   0  0  0  0  0
  -13.4215    6.7164   11.0170 H   0  0  0  0  0
  -15.5528    7.7554   10.8372 H   0  0  0  0  0
  -16.6209    8.7958    8.8968 H   0  0  0  0  0
  -15.9059    7.4470    7.8920 H   0  0  0  0  0
  -16.3818    4.8212    8.5854 H   0  0  0  0  0
  -11.6901    2.7576    9.9659 H   0  0  0  0  0
  -13.9722    0.2651    5.9137 H   0  0  0  0  0
  -16.2967   -0.4846    6.0849 H   0  0  0  0  0
  -18.3242   -0.5429    7.2671 H   0  0  0  0  0
  -18.9152    1.0566    6.8576 H   0  0  0  0  0
  -18.4464    0.0488    9.6780 H   0  0  0  0  0
  -20.6389    2.6888   10.6235 H   0  0  0  0  0
  -19.7247    1.2971   11.2139 H   0  0  0  0  0
  -17.0937    2.6402    8.8923 H   0  0  0  0  0
  -12.7067    2.9922    7.6513 H   0  0  0  0  0
  1  2  4  0  0  0
  1  6  4  0  0  0
  1  7  1  0  0  0
  2  3  4  0  0  0
  3  4  4  0  0  0
  4  5  4  0  0  0
  4 10  1  0  0  0
  5  6  4  0  0  0
  5 11  1  0  0  0
  7  8  1  0  0  0
  7  9  1  0  0  0
 10 12  2  0  0  0
 11 12  1  0  0  0
 12 13  1  0  0  0
 13 14  4  0  0  0
 13 26  4  0  0  0
 14 15  4  0  0  0
 15 16  1  0  0  0
 15 24  4  0  0  0
 16 17  1  0  0  0
 16 20  1  0  0  0
 17 18  1  0  0  0
 17 19  2  0  0  0
 20 21  1  0  0  0
 21 22  1  0  0  0
 21 23  2  0  0  0
 24 25  4  0  0  0
 25 26  4  0  0  0
 25 28  1  0  0  0
 26 27  1  0  0  0
 28 29  4  0  0  0
 28 38  4  0  0  0
 29 30  4  0  0  0
 29 39  1  0  0  0
 30 31  4  0  0  0
 31 32  4  0  0  0
 32 33  1  0  0  0
 32 38  4  0  0  0
 33 34  1  0  0  0
 34 35  1  0  0  0
 35 36  2  0  0  0
 35 37  1  0  0  0
  2 40  1  0  0  0
  3 41  1  0  0  0
  6 42  1  0  0  0
  8 43  1  0  0  0
  8 44  1  0  0  0
  9 45  1  0  0  0
  9 46  1  0  0  0
 11 47  1  0  0  0
 14 48  1  0  0  0
 16 49  1  0  0  0
 20 50  1  0  0  0
 20 51  1  0  0  0
 24 52  1  0  0  0
 27 53  1  0  0  0
 30 54  1  0  0  0
 31 55  1  0  0  0
 33 56  1  0  0  0
 33 57  1  0  0  0
 34 58  1  0  0  0
 37 59  1  0  0  0
 37 60  1  0  0  0
 38 61  1  0  0  0
 39 62  1  0  0  0
M  END
$$$$
