### 
### Created by X-TOOL on Sun Jun  3 11:16:58 2007
### 

@<TRIPOS>MOLECULE
2b7d_ligand
   62    65     1     0     0
SMALL
GAST_HUCK


@<TRIPOS>ATOM
      1 C1         -7.9230    5.4370   13.1650 C.ar      1 SUB1        0.021
      2 C2         -7.6930    4.1240   12.6590 C.ar      1 SUB1       -0.063
      3 C3         -8.6350    3.4590   11.8700 C.ar      1 SUB1       -0.051
      4 C4         -9.7850    4.1340   11.6080 C.ar      1 SUB1        0.051
      5 C5        -10.0400    5.3590   12.0580 C.ar      1 SUB1        0.092
      6 C6         -9.1490    6.0590   12.8390 C.ar      1 SUB1       -0.026
      7 C7         -6.9650    6.0700   13.9520 C.cat     1 SUB1        0.234
      8 N1         -7.0210    7.3760   14.0640 N.pl3     1 SUB1       -0.272
      9 N2         -6.0370    5.3420   14.5510 N.pl3     1 SUB1       -0.272
     10 N3        -10.8130    3.7680   10.9190 N.2       1 SUB1       -0.282
     11 N4        -11.2260    5.8050   11.6730 N.pl3     1 SUB1       -0.241
     12 C8        -11.6430    4.7620   10.9700 C.2       1 SUB1        0.167
     13 C1'       -12.8930    4.7590   10.3320 C.ar      1 SUB1        0.122
     14 C2'       -13.7420    5.8530   10.4340 C.ar      1 SUB1       -0.008
     15 C3'       -14.9810    5.8830    9.8200 C.ar      1 SUB1        0.005
     16 C31'      -15.8850    7.1050   10.0280 C.3       1 SUB1        0.074
     17 C32'      -17.2940    6.5710   10.4520 C.2       1 SUB1        0.056
     18 O33'      -17.3480    6.0230   11.5490 O.2       1 SUB1       -0.565
     19 O34'      -18.2480    6.7060    9.7060 O.2       1 SUB1       -0.565
     20 C42'      -15.8190    8.0660    8.7850 C.3       1 SUB1        0.088
     21 C43'      -14.4710    8.8670    8.6690 C.2       1 SUB1        0.350
     22 O44'      -13.8320    9.2200    9.6560 O.2       1 SUB1       -0.262
     23 O45'      -14.1050    9.1200    7.5370 O.2       1 SUB1       -0.262
     24 C4'       -15.4050    4.7890    9.0680 C.ar      1 SUB1       -0.015
     25 C5'       -14.6050    3.6490    8.9180 C.ar      1 SUB1        0.082
     26 C6'       -13.3470    3.6620    9.5670 C.ar      1 SUB1        0.195
     27 O6'       -12.4910    2.5780    9.4680 O.3       1 SUB1       -0.271
     28 C1''      -15.0640    2.5660    8.1550 C.ar      1 SUB1        0.059
     29 C2''      -14.2250    1.8650    7.2940 C.ar      1 SUB1        0.136
     30 C3''      -14.6630    0.7920    6.5720 C.ar      1 SUB1       -0.005
     31 C4''      -15.9610    0.3730    6.6680 C.ar      1 SUB1       -0.038
     32 C5''      -16.8440    1.0230    7.4920 C.ar      1 SUB1       -0.005
     33 C51       -18.2800    0.5080    7.5530 C.3       1 SUB1        0.070
     34 N52       -18.7500    0.6910    8.9460 N.am      1 SUB1       -0.260
     35 C53       -19.5610    1.6860    9.2340 C.2       1 SUB1        0.257
     36 O54       -19.9470    2.4590    8.3790 O.2       1 SUB1       -0.401
     37 N55       -20.0080    1.9070   10.4470 N.am      1 SUB1       -0.287
     38 C6''      -16.3960    2.1200    8.2360 C.ar      1 SUB1       -0.031
     39 O2''      -12.9100    2.2330    7.1000 O.3       1 SUB1       -0.307
     40 H          -6.7537    3.6238   12.8949 H         1 SUB1        0.055
     41 H          -8.4573    2.4545   11.4859 H         1 SUB1        0.060
     42 H          -9.3820    7.0625   13.1952 H         1 SUB1        0.057
     43 H          -6.3312    7.8693   14.6307 H         1 SUB1        0.318
     44 H          -7.7544    7.8980   13.5844 H         1 SUB1        0.318
     45 H          -5.3274    5.7942   15.1275 H         1 SUB1        0.318
     46 H          -6.0311    4.3285   14.4364 H         1 SUB1        0.318
     47 H         -11.6861    6.6953   11.8630 H         1 SUB1        0.232
     48 H         -13.4215    6.7164   11.0170 H         1 SUB1        0.074
     49 H         -15.5528    7.7554   10.8372 H         1 SUB1        0.071
     50 H         -16.6209    8.7958    8.8968 H         1 SUB1        0.054
     51 H         -15.9059    7.4470    7.8920 H         1 SUB1        0.054
     52 H         -16.3818    4.8212    8.5854 H         1 SUB1        0.065
     53 H         -11.6901    2.7576    9.9659 H         1 SUB1        0.289
     54 H         -13.9722    0.2651    5.9137 H         1 SUB1        0.061
     55 H         -16.2967   -0.4846    6.0849 H         1 SUB1        0.073
     56 H         -18.3242   -0.5429    7.2671 H         1 SUB1        0.070
     57 H         -18.9152    1.0566    6.8576 H         1 SUB1        0.070
     58 H         -18.4464    0.0488    9.6780 H         1 SUB1        0.188
     59 H         -20.6389    2.6888   10.6235 H         1 SUB1        0.181
     60 H         -19.7247    1.2971   11.2139 H         1 SUB1        0.181
     61 H         -17.0937    2.6402    8.8923 H         1 SUB1        0.059
     62 H         -12.7067    2.9922    7.6513 H         1 SUB1        0.266
@<TRIPOS>BOND
     1    1    2 ar 
     2    1    6 ar 
     3    1    7 1  
     4    2    3 ar 
     5    3    4 ar 
     6    4    5 ar 
     7    4   10 1  
     8    5    6 ar 
     9    5   11 1  
    10    7    8 1  
    11    7    9 1  
    12   10   12 2  
    13   11   12 1  
    14   12   13 1  
    15   13   14 ar 
    16   13   26 ar 
    17   14   15 ar 
    18   15   16 1  
    19   15   24 ar 
    20   16   17 1  
    21   16   20 1  
    22   17   18 2  
    23   17   19 2  
    24   20   21 1  
    25   21   22 2  
    26   21   23 2  
    27   24   25 ar 
    28   25   26 ar 
    29   25   28 1  
    30   26   27 1  
    31   28   29 ar 
    32   28   38 ar 
    33   29   30 ar 
    34   29   39 1  
    35   30   31 ar 
    36   31   32 ar 
    37   32   33 1  
    38   32   38 ar 
    39   33   34 1  
    40   34   35 am 
    41   35   36 2  
    42   35   37 am 
    43    2   40 1  
    44    3   41 1  
    45    6   42 1  
    46    8   43 1  
    47    8   44 1  
    48    9   45 1  
    49    9   46 1  
    50   11   47 1  
    51   14   48 1  
    52   16   49 1  
    53   20   50 1  
    54   20   51 1  
    55   24   52 1  
    56   27   53 1  
    57   30   54 1  
    58   31   55 1  
    59   33   56 1  
    60   33   57 1  
    61   34   58 1  
    62   37   59 1  
    63   37   60 1  
    64   38   61 1  
    65   39   62 1  
@<TRIPOS>SUBSTRUCTURE
     1 SUB1        1 GROUP

