### 
### Created by X-TOOL on Tue Oct 25 02:15:53 2005
### 

@<TRIPOS>MOLECULE
1e2l_ligand
   34    36     1     0     0
SMALL
GAST_HUCK


@<TRIPOS>ATOM
      1 H61        50.6033   36.7775    1.2626 H         1 SUB1        0.209
      2 H71        51.4235   35.4073   -2.0184 H         1 SUB1        0.210
      3 H111       43.6288   32.7021   -0.1853 H         1 SUB1        0.226
      4 H131       49.2958   35.5818   -1.1466 H         1 SUB1        0.060
      5 H141       47.7736   34.3588   -2.3680 H         1 SUB1        0.032
      6 O16        50.2480   36.1560    0.6380 O.3       1 SUB1       -0.394
      7 O18        50.7490   34.8620   -2.4060 O.3       1 SUB1       -0.391
      8 O9         45.5780   31.9080   -1.4740 O.2       1 SUB1       -0.384
      9 O7         43.2950   34.6050    1.4770 O.2       1 SUB1       -0.408
     10 N8         46.8020   33.4610   -0.2830 N.am      1 SUB1       -0.198
     11 N5         44.4640   33.2090    0.0280 N.am      1 SUB1       -0.186
     12 C1         50.2620   33.9340   -0.1760 C.3       1 SUB1        0.026
     13 C10        49.7220   34.6090   -1.4330 C.3       1 SUB1        0.066
     14 C14        48.5910   33.7320   -1.9820 C.3       1 SUB1        0.004
     15 C17        48.0950   32.8740   -0.7790 C.3       1 SUB1        0.078
     16 C13        49.2220   32.9240    0.2940 C.3       1 SUB1       -0.000
     17 C15        50.5670   32.4800   -0.2380 C.3       1 SUB1       -0.036
     18 C12        50.8760   34.8460    0.8430 C.3       1 SUB1        0.052
     19 C11        45.6370   32.8110   -0.6370 C.2       1 SUB1        0.325
     20 C6         44.3550   34.2370    0.9510 C.2       1 SUB1        0.193
     21 C4         45.6250   34.8860    1.2590 C.2       1 SUB1        0.022
     22 C2         46.7800   34.4890    0.6550 C.2       1 SUB1        0.050
     23 C3         45.5750   36.0050    2.2950 C.3       1 SUB1       -0.044
     24 H142       48.9664   33.0825   -2.7865 H         1 SUB1        0.032
     25 H151       47.9264   31.8328   -1.0910 H         1 SUB1        0.064
     26 H161       48.8904   32.7750    1.3322 H         1 SUB1        0.034
     27 H171       51.3106   32.0473    0.4474 H         1 SUB1        0.028
     28 H172       50.6299   31.9753   -1.2134 H         1 SUB1        0.028
     29 H181       50.6711   34.4779    1.8591 H         1 SUB1        0.056
     30 H182       51.9631   34.9143    0.6900 H         1 SUB1        0.056
     31 H221       47.7118   34.9899    0.9133 H         1 SUB1        0.101
     32 H231       46.5855   36.4141    2.4418 H         1 SUB1        0.030
     33 H232       45.1991   35.6055    3.2484 H         1 SUB1        0.030
     34 H233       44.9045   36.8022    1.9416 H         1 SUB1        0.030
@<TRIPOS>BOND
     1    6    1 1  
     2    7    2 1  
     3   11    3 1  
     4   13    4 1  
     5   18    6 1  
     6   12   18 1  
     7   13   12 1  
     8   16   12 1  
     9   17   12 1  
    10   16   17 1  
    11   15   16 1  
    12   10   15 1  
    13   15   14 1  
    14   14   13 1  
    15   13    7 1  
    16   10   19 am 
    17   22   10 am 
    18   21   22 2  
    19   21   23 1  
    20   20   21 1  
    21   20    9 2  
    22   20   11 am 
    23   11   19 am 
    24   19    8 2  
    25   14    5 1  
    26   14   24 1  
    27   15   25 1  
    28   16   26 1  
    29   17   27 1  
    30   17   28 1  
    31   18   29 1  
    32   18   30 1  
    33   22   31 1  
    34   23   32 1  
    35   23   33 1  
    36   23   34 1  
@<TRIPOS>SUBSTRUCTURE
     1 SUB1        1 GROUP

