1e2l_ligand
  -I-interpret- 

 34 36  0  0  0  0  0  0  0  0999 V2000
   50.6033   36.7775    1.2626 H   0  0  0  0  0
   51.4235   35.4073   -2.0184 H   0  0  0  0  0
   43.6288   32.7021   -0.1853 H   0  0  0  0  0
   49.2958   35.5818   -1.1466 H   0  0  0  0  0
   47.7736   34.3588   -2.3680 H   0  0  0  0  0
   50.2480   36.1560    0.6380 O   0  0  0  0  0
   50.7490   34.8620   -2.4060 O   0  0  0  0  0
   45.5780   31.9080   -1.4740 O   0  0  0  0  0
   43.2950   34.6050    1.4770 O   0  0  0  0  0
   46.8020   33.4610   -0.2830 N   0  0  0  0  0
   44.4640   33.2090    0.0280 N   0  0  0  0  0
   50.2620   33.9340   -0.1760 C   0  0  0  0  0
   49.7220   34.6090   -1.4330 C   0  0  0  0  0
   48.5910   33.7320   -1.9820 C   0  0  0  0  0
   48.0950   32.8740   -0.7790 C   0  0  0  0  0
   49.2220   32.9240    0.2940 C   0  0  0  0  0
   50.5670   32.4800   -0.2380 C   0  0  0  0  0
   50.8760   34.8460    0.8430 C   0  0  0  0  0
   45.6370   32.8110   -0.6370 C   0  0  0  0  0
   44.3550   34.2370    0.9510 C   0  0  0  0  0
   45.6250   34.8860    1.2590 C   0  0  0  0  0
   46.7800   34.4890    0.6550 C   0  0  0  0  0
   45.5750   36.0050    2.2950 C   0  0  0  0  0
   48.9664   33.0825   -2.7865 H   0  0  0  0  0
   47.9264   31.8328   -1.0910 H   0  0  0  0  0
   48.8904   32.7750    1.3322 H   0  0  0  0  0
   51.3106   32.0473    0.4474 H   0  0  0  0  0
   50.6299   31.9753   -1.2134 H   0  0  0  0  0
   50.6711   34.4779    1.8591 H   0  0  0  0  0
   51.9631   34.9143    0.6900 H   0  0  0  0  0
   47.7118   34.9899    0.9133 H   0  0  0  0  0
   46.5855   36.4141    2.4418 H   0  0  0  0  0
   45.1991   35.6055    3.2484 H   0  0  0  0  0
   44.9045   36.8022    1.9416 H   0  0  0  0  0
  6  1  1  0  0  0
  7  2  1  0  0  0
 11  3  1  0  0  0
 13  4  1  0  0  0
 18  6  1  0  0  0
 12 18  1  0  0  0
 13 12  1  0  0  0
 16 12  1  0  0  0
 17 12  1  0  0  0
 16 17  1  0  0  0
 15 16  1  0  0  0
 10 15  1  0  0  0
 15 14  1  0  0  0
 14 13  1  0  0  0
 13  7  1  0  0  0
 10 19  1  0  0  0
 22 10  1  0  0  0
 21 22  2  0  0  0
 21 23  1  0  0  0
 20 21  1  0  0  0
 20  9  2  0  0  0
 20 11  1  0  0  0
 11 19  1  0  0  0
 19  8  2  0  0  0
 14  5  1  0  0  0
 14 24  1  0  0  0
 15 25  1  0  0  0
 16 26  1  0  0  0
 17 27  1  0  0  0
 17 28  1  0  0  0
 18 29  1  0  0  0
 18 30  1  0  0  0
 22 31  1  0  0  0
 23 32  1  0  0  0
 23 33  1  0  0  0
 23 34  1  0  0  0
M  END
$$$$
