1nt1_ligand
  -I-interpret- 

 68 71  0  0  0  0  0  0  0  0999 V2000
   13.3050  -11.3460   21.9390 C   0  0  0  0  0
   12.6100  -12.4750   22.3290 C   0  0  0  0  0
   11.6610  -12.4160   23.3870 C   0  0  0  0  0
   11.4900  -11.2300   24.1020 C   0  0  0  0  0
   12.2810  -10.1200   23.7820 C   0  0  0  0  0
   13.1730  -10.1610   22.6800 C   0  0  0  0  0
   14.1440  -11.3850   20.6840 C   0  0  0  0  0
   15.5830  -11.5230   20.9480 N   0  0  0  0  0
   16.1920  -12.7050   20.6640 C   0  0  0  0  0
   17.6880  -12.7240   20.8980 C   0  0  0  0  0
   15.6200  -13.7450   20.3220 O   0  0  0  0  0
   12.9140  -13.6870   21.7050 O   0  0  0  0  0
   18.4400  -12.8770   19.5630 C   0  0  0  0  0
   19.7640  -13.5550   19.9390 C   0  0  0  0  0
   19.2630  -14.5920   20.9510 C   0  0  0  0  0
   18.1110  -13.9590   21.5710 N   0  0  0  0  0
   17.4450  -14.3920   22.6690 C   0  0  0  0  0
   17.9410  -15.7110   23.2370 C   0  0  0  0  0
   16.8250  -16.6570   23.2880 N   0  0  0  0  0
   16.6220  -17.3810   22.1570 C   0  0  0  0  0
   17.4440  -17.4820   21.2250 O   0  0  0  0  0
   15.2330  -17.9950   22.0630 C   0  0  0  0  0
   14.4690  -17.3110   20.9130 C   0  0  0  0  0
   13.9290  -15.9920   21.3100 N   0  0  0  0  0
   12.7000  -16.0430   21.8690 C   0  0  0  0  0
   12.0520  -17.0770   22.0300 O   0  0  0  0  0
   12.1630  -14.7150   22.3090 C   0  0  0  0  0
   16.4310  -13.8520   23.1320 O   0  0  0  0  0
   18.5290  -15.4530   24.6390 C   0  0  0  0  0
   18.7960  -16.7530   25.4060 C   0  0  0  0  0
   19.4010  -16.4530   26.7880 C   0  0  0  0  0
   20.6980  -15.6420   26.6280 C   0  0  0  0  0
   20.4210  -14.3300   25.8830 C   0  0  0  0  0
   19.8080  -14.6210   24.5140 C   0  0  0  0  0
   12.1860   -8.7050   24.7850 Cl  0  0  0  0  0
   11.0718  -13.2908   23.6373 H   0  0  0  0  0
   10.7539  -11.1688   24.8954 H   0  0  0  0  0
   13.7491   -9.2829   22.4117 H   0  0  0  0  0
   13.8288  -12.2432   20.0724 H   0  0  0  0  0
   13.9911  -10.4500   20.1252 H   0  0  0  0  0
   16.1054  -10.7606   21.3300 H   0  0  0  0  0
   18.0004  -11.8326   21.4617 H   0  0  0  0  0
   17.8761  -13.5115   18.8635 H   0  0  0  0  0
   18.6348  -11.8958   19.1057 H   0  0  0  0  0
   20.2384  -14.0418   19.0742 H   0  0  0  0  0
   20.4690  -12.8523   20.4072 H   0  0  0  0  0
   18.9598  -15.5219   20.4477 H   0  0  0  0  0
   20.0304  -14.8086   21.7087 H   0  0  0  0  0
   18.7374  -16.1196   22.5977 H   0  0  0  0  0
   16.2513  -16.7629   24.1002 H   0  0  0  0  0
   15.3106  -19.0719   21.8529 H   0  0  0  0  0
   14.6859  -17.8349   23.0037 H   0  0  0  0  0
   15.1523  -17.1615   20.0641 H   0  0  0  0  0
   13.6269  -17.9498   20.6086 H   0  0  0  0  0
   14.4301  -15.1370   21.1762 H   0  0  0  0  0
   12.2426  -14.6427   23.4037 H   0  0  0  0  0
   11.1091  -14.6372   22.0037 H   0  0  0  0  0
   17.8032  -14.8599   25.2147 H   0  0  0  0  0
   17.8506  -17.2971   25.5478 H   0  0  0  0  0
   19.5054  -17.3747   24.8402 H   0  0  0  0  0
   18.6881  -15.8660   27.3855 H   0  0  0  0  0
   19.6348  -17.3963   27.3033 H   0  0  0  0  0
   21.1082  -15.4030   27.6202 H   0  0  0  0  0
   21.4294  -16.2265   26.0507 H   0  0  0  0  0
   19.7149  -13.7174   26.4627 H   0  0  0  0  0
   21.3630  -13.7808   25.7383 H   0  0  0  0  0
   20.5454  -15.1745   23.9142 H   0  0  0  0  0
   19.5730  -13.6625   24.0282 H   0  0  0  0  0
  1  2  4  0  0  0
  1  6  4  0  0  0
  1  7  1  0  0  0
  2  3  4  0  0  0
  2 12  1  0  0  0
  3  4  4  0  0  0
  4  5  4  0  0  0
  5  6  4  0  0  0
  5 35  1  0  0  0
  7  8  1  0  0  0
  8  9  1  0  0  0
  9 10  1  0  0  0
  9 11  2  0  0  0
 10 13  1  0  0  0
 10 16  1  0  0  0
 12 27  1  0  0  0
 13 14  1  0  0  0
 14 15  1  0  0  0
 15 16  1  0  0  0
 16 17  1  0  0  0
 17 18  1  0  0  0
 17 28  2  0  0  0
 18 19  1  0  0  0
 18 29  1  0  0  0
 19 20  1  0  0  0
 20 21  2  0  0  0
 20 22  1  0  0  0
 22 23  1  0  0  0
 23 24  1  0  0  0
 24 25  1  0  0  0
 25 26  2  0  0  0
 25 27  1  0  0  0
 29 30  1  0  0  0
 29 34  1  0  0  0
 30 31  1  0  0  0
 31 32  1  0  0  0
 32 33  1  0  0  0
 33 34  1  0  0  0
  3 36  1  0  0  0
  4 37  1  0  0  0
  6 38  1  0  0  0
  7 39  1  0  0  0
  7 40  1  0  0  0
  8 41  1  0  0  0
 10 42  1  0  0  0
 13 43  1  0  0  0
 13 44  1  0  0  0
 14 45  1  0  0  0
 14 46  1  0  0  0
 15 47  1  0  0  0
 15 48  1  0  0  0
 18 49  1  0  0  0
 19 50  1  0  0  0
 22 51  1  0  0  0
 22 52  1  0  0  0
 23 53  1  0  0  0
 23 54  1  0  0  0
 24 55  1  0  0  0
 27 56  1  0  0  0
 27 57  1  0  0  0
 29 58  1  0  0  0
 30 59  1  0  0  0
 30 60  1  0  0  0
 31 61  1  0  0  0
 31 62  1  0  0  0
 32 63  1  0  0  0
 32 64  1  0  0  0
 33 65  1  0  0  0
 33 66  1  0  0  0
 34 67  1  0  0  0
 34 68  1  0  0  0
M  END
$$$$
