### 
### Created by X-TOOL on Tue Oct 25 00:09:13 2005
### 

@<TRIPOS>MOLECULE
1nt1_ligand
   68    71     1     0     0
SMALL
GAST_HUCK


@<TRIPOS>ATOM
      1 C1         13.3050  -11.3460   21.9390 C.ar      1 SUB1        0.009
      2 C2         12.6100  -12.4750   22.3290 C.ar      1 SUB1        0.098
      3 C3         11.6610  -12.4160   23.3870 C.ar      1 SUB1       -0.039
      4 C4         11.4900  -11.2300   24.1020 C.ar      1 SUB1       -0.064
      5 C5         12.2810  -10.1200   23.7820 C.ar      1 SUB1        0.022
      6 C6         13.1730  -10.1610   22.6800 C.ar      1 SUB1       -0.053
      7 C7         14.1440  -11.3850   20.6840 C.3       1 SUB1        0.063
      8 N8         15.5830  -11.5230   20.9480 N.am      1 SUB1       -0.275
      9 C9         16.1920  -12.7050   20.6640 C.2       1 SUB1        0.204
     10 C10        17.6880  -12.7240   20.8980 C.3       1 SUB1        0.134
     11 O11        15.6200  -13.7450   20.3220 O.2       1 SUB1       -0.394
     12 O12        12.9140  -13.6870   21.7050 O.3       1 SUB1       -0.301
     13 C18        18.4400  -12.8770   19.5630 C.3       1 SUB1       -0.010
     14 C19        19.7640  -13.5550   19.9390 C.3       1 SUB1       -0.028
     15 C20        19.2630  -14.5920   20.9510 C.3       1 SUB1        0.037
     16 N21        18.1110  -13.9590   21.5710 N.am      1 SUB1       -0.250
     17 C29        17.4450  -14.3920   22.6690 C.2       1 SUB1        0.207
     18 C30        17.9410  -15.7110   23.2370 C.3       1 SUB1        0.134
     19 N31        16.8250  -16.6570   23.2880 N.am      1 SUB1       -0.265
     20 C32        16.6220  -17.3810   22.1570 C.2       1 SUB1        0.180
     21 O33        17.4440  -17.4820   21.2250 O.2       1 SUB1       -0.397
     22 C34        15.2330  -17.9950   22.0630 C.3       1 SUB1        0.058
     23 C35        14.4690  -17.3110   20.9130 C.3       1 SUB1        0.048
     24 N38        13.9290  -15.9920   21.3100 N.am      1 SUB1       -0.282
     25 C41        12.7000  -16.0430   21.8690 C.2       1 SUB1        0.207
     26 O42        12.0520  -17.0770   22.0300 O.2       1 SUB1       -0.394
     27 C43        12.1630  -14.7150   22.3090 C.3       1 SUB1        0.157
     28 O44        16.4310  -13.8520   23.1320 O.2       1 SUB1       -0.394
     29 C45        18.5290  -15.4530   24.6390 C.3       1 SUB1       -0.001
     30 C47        18.7960  -16.7530   25.4060 C.3       1 SUB1       -0.046
     31 C48        19.4010  -16.4530   26.7880 C.3       1 SUB1       -0.053
     32 C49        20.6980  -15.6420   26.6280 C.3       1 SUB1       -0.053
     33 C50        20.4210  -14.3300   25.8830 C.3       1 SUB1       -0.053
     34 C51        19.8080  -14.6210   24.5140 C.3       1 SUB1       -0.046
     35 CL68       12.1860   -8.7050   24.7850 Cl        1 SUB1       -0.083
     36 H31        11.0718  -13.2908   23.6373 H         1 SUB1        0.052
     37 H41        10.7539  -11.1688   24.8954 H         1 SUB1        0.054
     38 H61        13.7491   -9.2829   22.4117 H         1 SUB1        0.053
     39 H71        13.8288  -12.2432   20.0724 H         1 SUB1        0.066
     40 H72        13.9911  -10.4500   20.1252 H         1 SUB1        0.066
     41 H81        16.1054  -10.7606   21.3300 H         1 SUB1        0.188
     42 H101       18.0004  -11.8326   21.4617 H         1 SUB1        0.080
     43 H131       17.8761  -13.5115   18.8635 H         1 SUB1        0.031
     44 H132       18.6348  -11.8958   19.1057 H         1 SUB1        0.031
     45 H141       20.2384  -14.0418   19.0742 H         1 SUB1        0.029
     46 H142       20.4690  -12.8523   20.4072 H         1 SUB1        0.029
     47 H151       18.9598  -15.5219   20.4477 H         1 SUB1        0.052
     48 H152       20.0304  -14.8086   21.7087 H         1 SUB1        0.052
     49 H181       18.7374  -16.1196   22.5977 H         1 SUB1        0.080
     50 H191       16.2513  -16.7629   24.1002 H         1 SUB1        0.188
     51 H221       15.3106  -19.0719   21.8529 H         1 SUB1        0.052
     52 H222       14.6859  -17.8349   23.0037 H         1 SUB1        0.052
     53 H231       15.1523  -17.1615   20.0641 H         1 SUB1        0.054
     54 H232       13.6269  -17.9498   20.6086 H         1 SUB1        0.054
     55 H241       14.4301  -15.1370   21.1762 H         1 SUB1        0.185
     56 H271       12.2426  -14.6427   23.4037 H         1 SUB1        0.086
     57 H272       11.1091  -14.6372   22.0037 H         1 SUB1        0.086
     58 H291       17.8032  -14.8599   25.2147 H         1 SUB1        0.035
     59 H301       17.8506  -17.2971   25.5478 H         1 SUB1        0.027
     60 H302       19.5054  -17.3747   24.8402 H         1 SUB1        0.027
     61 H311       18.6881  -15.8660   27.3855 H         1 SUB1        0.026
     62 H312       19.6348  -17.3963   27.3033 H         1 SUB1        0.026
     63 H321       21.1082  -15.4030   27.6202 H         1 SUB1        0.026
     64 H322       21.4294  -16.2265   26.0507 H         1 SUB1        0.026
     65 H331       19.7149  -13.7174   26.4627 H         1 SUB1        0.026
     66 H332       21.3630  -13.7808   25.7383 H         1 SUB1        0.026
     67 H341       20.5454  -15.1745   23.9142 H         1 SUB1        0.027
     68 H342       19.5730  -13.6625   24.0282 H         1 SUB1        0.027
@<TRIPOS>BOND
     1    1    2 ar 
     2    1    6 ar 
     3    1    7 1  
     4    2    3 ar 
     5    2   12 1  
     6    3    4 ar 
     7    4    5 ar 
     8    5    6 ar 
     9    5   35 1  
    10    7    8 1  
    11    8    9 am 
    12    9   10 1  
    13    9   11 2  
    14   10   13 1  
    15   10   16 1  
    16   12   27 1  
    17   13   14 1  
    18   14   15 1  
    19   15   16 1  
    20   16   17 am 
    21   17   18 1  
    22   17   28 2  
    23   18   19 1  
    24   18   29 1  
    25   19   20 am 
    26   20   21 2  
    27   20   22 1  
    28   22   23 1  
    29   23   24 1  
    30   24   25 am 
    31   25   26 2  
    32   25   27 1  
    33   29   30 1  
    34   29   34 1  
    35   30   31 1  
    36   31   32 1  
    37   32   33 1  
    38   33   34 1  
    39    3   36 1  
    40    4   37 1  
    41    6   38 1  
    42    7   39 1  
    43    7   40 1  
    44    8   41 1  
    45   10   42 1  
    46   13   43 1  
    47   13   44 1  
    48   14   45 1  
    49   14   46 1  
    50   15   47 1  
    51   15   48 1  
    52   18   49 1  
    53   19   50 1  
    54   22   51 1  
    55   22   52 1  
    56   23   53 1  
    57   23   54 1  
    58   24   55 1  
    59   27   56 1  
    60   27   57 1  
    61   29   58 1  
    62   30   59 1  
    63   30   60 1  
    64   31   61 1  
    65   31   62 1  
    66   32   63 1  
    67   32   64 1  
    68   33   65 1  
    69   33   66 1  
    70   34   67 1  
    71   34   68 1  
@<TRIPOS>SUBSTRUCTURE
     1 SUB1        1 GROUP

