### 
### Created by X-TOOL on Mon Oct 24 23:08:08 2005
### 

@<TRIPOS>MOLECULE
1is0_ligand
   81    82     1     0     0
SMALL
GAST_HUCK


@<TRIPOS>ATOM
      1 C1          7.8370   24.9000   16.3810 C.2       1 SUB1        0.184
      2 O1          8.7810   24.1480   16.2120 O.2       1 SUB1       -0.396
      3 N1          6.5880   24.6510   15.8960 N.am      1 SUB1       -0.289
      4 C2          6.1530   23.2890   15.6310 C.3       1 SUB1        0.020
      5 CA          9.3010   26.3550   17.6510 C.3       1 SUB1        0.083
      6 C           9.6870   26.8830   19.0660 C.2       1 SUB1        0.186
      7 O           8.9160   27.6660   19.6390 O.2       1 SUB1       -0.396
      8 CB          8.6370   27.4180   16.6660 C.3       1 SUB1        0.016
      9 CG          9.4100   27.4180   15.3290 C.ar      1 SUB1       -0.141
     10 CD1        10.8360   27.3960   15.1820 C.ar      1 SUB1       -0.179
     11 CD2         8.6210   27.4240   14.1560 C.ar      1 SUB1       -0.179
     12 CE1        11.3900   27.3910   13.8780 C.ar      1 SUB1       -0.140
     13 CE2         9.1700   27.4180   12.8650 C.ar      1 SUB1       -0.140
     14 CZ         10.5820   27.4060   12.7530 C.ar      1 SUB1        0.074
     15 OH         11.1660   27.4180   11.4500 O.3       1 SUB1       -0.110
     16 C7          7.8950   26.2190   17.1280 C.3       1 SUB1        0.083
     17 P          11.0530   26.2160   10.3550 P.3       1 SUB1        0.476
     18 O1P         9.6660   26.3070    9.6790 O.co2     1 SUB1       -0.376
     19 O2P        11.2930   24.9470   11.1210 O.co2     1 SUB1       -0.376
     20 O3P        12.1550   26.5770    9.3360 O.co2     1 SUB1       -0.376
     21 O2         13.8710   32.0391   27.6478 O.co2     1 SUB1       -0.564
     22 H411       11.4110   25.8357   19.1785 H         1 SUB1        0.188
     23 H421       10.2057   26.6344   21.6190 H         1 SUB1        0.080
     24 H451       12.4049   26.3401   22.6637 H         1 SUB1        0.035
     25 H452       13.1693   26.2733   21.0396 H         1 SUB1        0.035
     26 H461       12.9968   24.0588   21.8815 H         1 SUB1        0.049
     27 H462       11.8038   24.2511   20.5525 H         1 SUB1        0.049
     28 H511       10.8002   28.0083   23.2334 H         1 SUB1        0.188
     29 H521       11.8076   30.6734   22.3001 H         1 SUB1        0.080
     30 H551       10.4138   31.4064   24.4074 H         1 SUB1        0.035
     31 H552        9.5734   29.8384   24.1596 H         1 SUB1        0.035
     32 H561        8.9812   30.5311   21.8855 H         1 SUB1        0.049
     33 H562        9.7912   32.1095   22.1665 H         1 SUB1        0.049
     34 H611       13.2057   31.7743   23.7457 H         1 SUB1        0.190
     35 H621       14.3349   30.0832   25.9594 H         1 SUB1        0.078
     36 H651       15.6718   32.4285   24.4542 H         1 SUB1        0.036
     37 H661       15.4869   30.3887   23.0499 H         1 SUB1        0.027
     38 H662       16.2913   29.4393   24.3454 H         1 SUB1        0.027
     39 H671       16.4240   32.2056   26.8124 H         1 SUB1        0.024
     40 H672       17.7294   31.7108   25.6820 H         1 SUB1        0.024
     41 N          10.7910   26.4520   19.6640 N.am      1 SUB1       -0.265
     42 CA         11.1080   26.8760   21.0380 C.3       1 SUB1        0.134
     43 C          11.4100   28.3380   21.3510 C.2       1 SUB1        0.204
     44 O          11.8540   29.1030   20.5020 O.2       1 SUB1       -0.394
     45 CB         12.2610   26.0410   21.6150 C.3       1 SUB1       -0.001
     46 CG         12.0580   24.5470   21.5810 C.3       1 SUB1       -0.010
     47 CD         10.9520   24.0780   22.5060 C.2       1 SUB1        0.028
     48 OE1        11.0370   24.3060   23.7360 O.co2     1 SUB1       -0.567
     49 OE2        10.0000   23.4660   21.9910 O.co2     1 SUB1       -0.567
     50 H673       16.7694   30.4629   26.5468 H         1 SUB1        0.024
     51 N          11.1710   28.6930   22.6060 N.am      1 SUB1       -0.263
     52 CA         11.4250   30.0400   23.1140 C.3       1 SUB1        0.134
     53 C          12.4590   29.9630   24.2390 C.2       1 SUB1        0.205
     54 O          12.5240   28.9550   24.9580 O.2       1 SUB1       -0.394
     55 CB         10.1410   30.6410   23.6660 C.3       1 SUB1       -0.001
     56 CG          9.2500   31.2800   22.6450 C.3       1 SUB1       -0.010
     57 CD          7.9750   31.8210   23.2810 C.2       1 SUB1        0.028
     58 OE1         8.0790   32.6100   24.2590 O.co2     1 SUB1       -0.567
     59 OE2         6.8710   31.4530   22.8050 O.co2     1 SUB1       -0.567
     60 H681       17.4871   31.8041   22.8380 H         1 SUB1        0.023
     61 N          13.2820   31.0050   24.3800 N.am      1 SUB1       -0.268
     62 CA         14.2950   31.0520   25.4400 C.3       1 SUB1        0.084
     63 C          13.8740   32.1740   26.3950 C.2       1 SUB1        0.053
     64 O          13.5320   33.2400   25.8240 O.co2     1 SUB1       -0.564
     65 CB         15.7210   31.4300   24.9130 C.3       1 SUB1       -0.010
     66 CG1        16.2120   30.4310   23.8760 C.3       1 SUB1       -0.048
     67 CG2        16.7330   31.4540   26.0710 C.3       1 SUB1       -0.058
     68 CD1        17.5600   30.8200   23.3240 C.3       1 SUB1       -0.065
     69 H682       17.8848   30.0705   22.5873 H         1 SUB1        0.023
     70 H683       18.2917   30.8693   24.1439 H         1 SUB1        0.023
     71 H31         5.9643   25.4127   15.7206 H         1 SUB1        0.185
     72 H41         5.1222   23.3015   15.2472 H         1 SUB1        0.048
     73 H42         6.1905   22.7044   16.5620 H         1 SUB1        0.048
     74 H43         6.8171   22.8309   14.8833 H         1 SUB1        0.048
     75 H51        10.0663   25.6434   17.3076 H         1 SUB1        0.059
     76 H81         8.3110   28.4265   16.9603 H         1 SUB1        0.049
     77 H101       11.4797   27.3834   16.0541 H         1 SUB1       -0.021
     78 H111        7.5419   27.4337   14.2588 H         1 SUB1       -0.021
     79 H121       12.4673   27.3751   13.7584 H         1 SUB1       -0.018
     80 H131        8.5367   27.4224   11.9852 H         1 SUB1       -0.018
     81 H161        6.9967   26.3704   17.7445 H         1 SUB1        0.059
@<TRIPOS>BOND
     1   16    1 1  
     2    1    3 am 
     3    1    2 2  
     4    3    4 1  
     5    8   16 1  
     6    5   16 1  
     7    5    8 1  
     8    6    5 1  
     9    6    7 2  
    10    8    9 1  
    11    9   11 ar 
    12    9   10 ar 
    13   10   12 ar 
    14   12   14 ar 
    15   14   15 1  
    16   13   14 ar 
    17   11   13 ar 
    18   15   17 1  
    19   17   20 2  
    20   17   19 2  
    21   17   18 2  
    22   41    6 am 
    23   63   21 2  
    24   41   22 1  
    25   42   23 1  
    26   45   24 1  
    27   45   25 1  
    28   46   26 1  
    29   46   27 1  
    30   51   28 1  
    31   52   29 1  
    32   55   30 1  
    33   55   31 1  
    34   56   32 1  
    35   56   33 1  
    36   61   34 1  
    37   62   35 1  
    38   65   36 1  
    39   66   37 1  
    40   66   38 1  
    41   67   39 1  
    42   67   40 1  
    43   43   42 1  
    44   42   45 1  
    45   42   41 1  
    46   67   50 1  
    47   45   46 1  
    48   46   47 1  
    49   47   48 2  
    50   47   49 2  
    51   43   44 2  
    52   53   52 1  
    53   52   55 1  
    54   52   51 1  
    55   68   60 1  
    56   55   56 1  
    57   56   57 1  
    58   57   58 2  
    59   57   59 2  
    60   53   54 2  
    61   62   63 1  
    62   62   65 1  
    63   61   62 1  
    64   68   69 1  
    65   65   66 1  
    66   65   67 1  
    67   66   68 1  
    68   63   64 2  
    69   51   43 am 
    70   53   61 am 
    71   68   70 1  
    72    3   71 1  
    73    4   72 1  
    74    4   73 1  
    75    4   74 1  
    76    5   75 1  
    77    8   76 1  
    78   10   77 1  
    79   11   78 1  
    80   12   79 1  
    81   13   80 1  
    82   16   81 1  
@<TRIPOS>SUBSTRUCTURE
     1 SUB1        1 GROUP

