2fkf_ligand
  -I-interpret- 

 30 30  0  0  0  0  0  0  0  0999 V2000
   48.7330   48.6270   18.9360 C   0  0  0  0  0
   49.1270   49.9380   18.2450 C   0  0  0  0  0
   48.9570   49.7970   16.7420 C   0  0  0  0  0
   49.8310   48.6480   16.2770 C   0  0  0  0  0
   49.4770   47.3660   17.0380 C   0  0  0  0  0
   50.3780   46.1950   16.6590 C   0  0  0  0  0
   47.3650   48.3050   18.7040 O   0  0  0  0  0
   48.3570   51.0310   18.7140 O   0  0  0  0  0
   49.3100   50.9960   16.0660 O   0  0  0  0  0
   49.6150   48.4810   14.8920 O   0  0  0  0  0
   49.5630   47.5790   18.4450 O   0  0  0  0  0
   51.7140   46.4670   17.0590 O   0  0  0  0  0
   52.7840   45.5820   16.4620 P   0  0  0  0  0
   52.7790   45.7340   14.9730 O   0  0  0  0  0
   52.5560   44.1480   16.8430 O   0  5  0  0  0
   54.1510   46.0020   16.9460 O   0  5  0  0  0
   46.7000   47.1090   19.3520 P   0  0  0  0  0
   47.1250   47.0230   20.7930 O   0  5  0  0  0
   47.0480   45.8100   18.6770 O   0  0  0  0  0
   45.2110   47.3280   19.2680 O   0  5  0  0  0
   48.8684   48.7470   20.0109 H   0  0  0  0  0
   50.1714   50.1399   18.4828 H   0  0  0  0  0
   47.9108   49.5970   16.5107 H   0  0  0  0  0
   50.8815   48.8639   16.4716 H   0  0  0  0  0
   48.4545   47.1129   16.7577 H   0  0  0  0  0
   50.3472   46.0513   15.5790 H   0  0  0  0  0
   50.0278   45.2933   17.1614 H   0  0  0  0  0
   48.6518   51.8368   18.2835 H   0  0  0  0  0
   49.1915   50.8760   15.1209 H   0  0  0  0  0
   49.8421   49.2934   14.4336 H   0  0  0  0  0
  1  2  1  0  0  0
  1  7  1  0  0  0
  1 11  1  0  0  0
  2  3  1  0  0  0
  2  8  1  0  0  0
  3  4  1  0  0  0
  3  9  1  0  0  0
  4  5  1  0  0  0
  4 10  1  0  0  0
  5  6  1  0  0  0
  5 11  1  0  0  0
  6 12  1  0  0  0
  7 17  1  0  0  0
 12 13  1  0  0  0
 13 14  2  0  0  0
 13 15  1  0  0  0
 13 16  1  0  0  0
 17 18  1  0  0  0
 17 19  2  0  0  0
 17 20  1  0  0  0
  1 21  1  0  0  0
  2 22  1  0  0  0
  3 23  1  0  0  0
  4 24  1  0  0  0
  5 25  1  0  0  0
  6 26  1  0  0  0
  6 27  1  0  0  0
  8 28  1  0  0  0
  9 29  1  0  0  0
 10 30  1  0  0  0
M  END
$$$$
