### 
### Created by X-TOOL on Sun Jun  3 11:23:38 2007
### 

@<TRIPOS>MOLECULE
2fkf_ligand
   30    30     1     0     0
SMALL
GAST_HUCK


@<TRIPOS>ATOM
      1 C1         48.7330   48.6270   18.9360 C.3       1 SUB1        0.223
      2 C2         49.1270   49.9380   18.2450 C.3       1 SUB1        0.139
      3 C3         48.9570   49.7970   16.7420 C.3       1 SUB1        0.114
      4 C4         49.8310   48.6480   16.2770 C.3       1 SUB1        0.112
      5 C5         49.4770   47.3660   17.0380 C.3       1 SUB1        0.118
      6 C6         50.3780   46.1950   16.6590 C.3       1 SUB1        0.113
      7 O1         47.3650   48.3050   18.7040 O.3       1 SUB1       -0.182
      8 O2         48.3570   51.0310   18.7140 O.3       1 SUB1       -0.384
      9 O3         49.3100   50.9960   16.0660 O.3       1 SUB1       -0.386
     10 O4         49.6150   48.4810   14.8920 O.3       1 SUB1       -0.387
     11 O5         49.5630   47.5790   18.4450 O.3       1 SUB1       -0.336
     12 O6         51.7140   46.4670   17.0590 O.3       1 SUB1       -0.214
     13 P          52.7840   45.5820   16.4620 P.3       1 SUB1        0.615
     14 O1P        52.7790   45.7340   14.9730 O.2       1 SUB1       -0.214
     15 O2P        52.5560   44.1480   16.8430 O.2       1 SUB1       -0.214
     16 O3P        54.1510   46.0020   16.9460 O.2       1 SUB1       -0.214
     17 P          46.7000   47.1090   19.3520 P.3       1 SUB1        0.618
     18 O1P        47.1250   47.0230   20.7930 O.2       1 SUB1       -0.214
     19 O2P        47.0480   45.8100   18.6770 O.2       1 SUB1       -0.214
     20 O3P        45.2110   47.3280   19.2680 O.2       1 SUB1       -0.214
     21 H          48.8684   48.7470   20.0109 H         1 SUB1        0.099
     22 H          50.1714   50.1399   18.4828 H         1 SUB1        0.067
     23 H          47.9108   49.5970   16.5107 H         1 SUB1        0.065
     24 H          50.8815   48.8639   16.4716 H         1 SUB1        0.065
     25 H          48.4545   47.1129   16.7577 H         1 SUB1        0.065
     26 H          50.3472   46.0513   15.5790 H         1 SUB1        0.064
     27 H          50.0278   45.2933   17.1614 H         1 SUB1        0.064
     28 H          48.6518   51.8368   18.2835 H         1 SUB1        0.210
     29 H          49.1915   50.8760   15.1209 H         1 SUB1        0.210
     30 H          49.8421   49.2934   14.4336 H         1 SUB1        0.210
@<TRIPOS>BOND
     1    1    2 1  
     2    1    7 1  
     3    1   11 1  
     4    2    3 1  
     5    2    8 1  
     6    3    4 1  
     7    3    9 1  
     8    4    5 1  
     9    4   10 1  
    10    5    6 1  
    11    5   11 1  
    12    6   12 1  
    13    7   17 1  
    14   12   13 1  
    15   13   14 2  
    16   13   15 2  
    17   13   16 2  
    18   17   18 2  
    19   17   19 2  
    20   17   20 2  
    21    1   21 1  
    22    2   22 1  
    23    3   23 1  
    24    4   24 1  
    25    5   25 1  
    26    6   26 1  
    27    6   27 1  
    28    8   28 1  
    29    9   29 1  
    30   10   30 1  
@<TRIPOS>SUBSTRUCTURE
     1 SUB1        1 GROUP

