### 
### Created by X-TOOL on Mon Oct 24 23:51:36 2005
### 

@<TRIPOS>MOLECULE
1b8n_ligand
   35    37     1     0     0
SMALL
GAST_HUCK


@<TRIPOS>ATOM
      1 O5'       -66.6900   90.3810   97.6050 O.3       1 SUB1       -0.393
      2 C5'       -65.3860   90.2550   97.0230 C.3       1 SUB1        0.062
      3 C4'       -65.0230   88.8980   96.3610 C.3       1 SUB1        0.061
      4 N4'       -66.0870   88.7440   95.3660 N.3       1 SUB1       -0.298
      5 C3'       -63.7130   88.8060   95.5100 C.3       1 SUB1        0.101
      6 O3'       -63.1890   87.4580   95.3440 O.3       1 SUB1       -0.387
      7 C2'       -64.1210   89.3510   94.0980 C.3       1 SUB1        0.103
      8 O2'       -63.5970   88.5380   93.0400 O.3       1 SUB1       -0.386
      9 C1'       -65.6640   89.2910   94.0800 C.3       1 SUB1        0.059
     10 C9        -66.3690   90.7420   93.8760 C.2       1 SUB1        0.039
     11 C8        -67.6470   91.0320   94.1550 C.2       1 SUB1        0.021
     12 N7        -67.9010   92.4140   93.8430 N.pl3     1 SUB1       -0.285
     13 C5        -66.6630   92.9030   93.3710 C.2       1 SUB1        0.202
     14 C6        -66.3870   94.2710   92.9020 C.2       1 SUB1        0.244
     15 O6        -67.1280   95.2670   92.8890 O.2       1 SUB1       -0.399
     16 N1        -65.0700   94.3360   92.5080 N.am      1 SUB1       -0.176
     17 N2        -62.9040   93.5180   91.9370 N.pl3     1 SUB1       -0.276
     18 C2        -64.1390   93.3000   92.5200 C.2       1 SUB1        0.478
     19 N3        -64.4690   92.0930   92.9490 N.1       1 SUB1       -0.091
     20 C4        -65.7330   91.9400   93.3610 C.2       1 SUB1        0.319
     21 H11       -66.7881   91.2508   97.9742 H         1 SUB1        0.209
     22 H21       -65.2898   91.0253   96.2437 H         1 SUB1        0.057
     23 H22       -64.6451   90.4302   97.8169 H         1 SUB1        0.057
     24 H31       -65.0119   88.0979   97.1157 H         1 SUB1        0.051
     25 H41       -66.3140   87.6960   95.2377 H         1 SUB1        0.124
     26 H51       -62.9342   89.4448   95.9520 H         1 SUB1        0.064
     27 H61       -62.3981   87.4894   94.8187 H         1 SUB1        0.210
     28 H71       -63.7829   90.3899   93.9707 H         1 SUB1        0.065
     29 H81       -63.9320   87.6532   93.1264 H         1 SUB1        0.210
     30 H91       -65.9936   88.6369   93.2594 H         1 SUB1        0.058
     31 H111      -68.3789   90.3318   94.5551 H         1 SUB1        0.072
     32 H121      -68.7867   92.9304   93.9418 H         1 SUB1        0.230
     33 H161      -64.7465   95.2226   92.1774 H         1 SUB1        0.242
     34 H171      -62.1973   92.7687   91.9322 H         1 SUB1        0.176
     35 H172      -62.6909   94.4297   91.5076 H         1 SUB1        0.176
@<TRIPOS>BOND
     1    1    2 1  
     2    2    3 1  
     3    3    4 1  
     4    3    5 1  
     5    4    9 1  
     6    5    6 1  
     7    5    7 1  
     8    7    8 1  
     9    7    9 1  
    10    9   10 1  
    11   10   11 2  
    12   10   20 1  
    13   11   12 1  
    14   12   13 1  
    15   13   14 1  
    16   13   20 2  
    17   14   15 2  
    18   14   16 am 
    19   16   18 am 
    20   18   19 2  
    21   19   20 2  
    22   18   17 1  
    23    1   21 1  
    24    2   22 1  
    25    2   23 1  
    26    3   24 1  
    27    4   25 1  
    28    5   26 1  
    29    6   27 1  
    30    7   28 1  
    31    8   29 1  
    32    9   30 1  
    33   11   31 1  
    34   12   32 1  
    35   16   33 1  
    36   17   34 1  
    37   17   35 1  
@<TRIPOS>SUBSTRUCTURE
     1 SUB1        1 GROUP

