1b8n_ligand
  -I-interpret- 

 35 37  0  0  0  0  0  0  0  0999 V2000
  -66.6900   90.3810   97.6050 O   0  0  0  0  0
  -65.3860   90.2550   97.0230 C   0  0  0  0  0
  -65.0230   88.8980   96.3610 C   0  0  0  0  0
  -66.0870   88.7440   95.3660 N   0  0  0  0  0
  -63.7130   88.8060   95.5100 C   0  0  0  0  0
  -63.1890   87.4580   95.3440 O   0  0  0  0  0
  -64.1210   89.3510   94.0980 C   0  0  0  0  0
  -63.5970   88.5380   93.0400 O   0  0  0  0  0
  -65.6640   89.2910   94.0800 C   0  0  0  0  0
  -66.3690   90.7420   93.8760 C   0  0  0  0  0
  -67.6470   91.0320   94.1550 C   0  0  0  0  0
  -67.9010   92.4140   93.8430 N   0  0  0  0  0
  -66.6630   92.9030   93.3710 C   0  0  0  0  0
  -66.3870   94.2710   92.9020 C   0  0  0  0  0
  -67.1280   95.2670   92.8890 O   0  0  0  0  0
  -65.0700   94.3360   92.5080 N   0  0  0  0  0
  -62.9040   93.5180   91.9370 N   0  0  0  0  0
  -64.1390   93.3000   92.5200 C   0  0  0  0  0
  -64.4690   92.0930   92.9490 N   0  0  0  0  0
  -65.7330   91.9400   93.3610 C   0  0  0  0  0
  -66.7881   91.2508   97.9742 H   0  0  0  0  0
  -65.2898   91.0253   96.2437 H   0  0  0  0  0
  -64.6451   90.4302   97.8169 H   0  0  0  0  0
  -65.0119   88.0979   97.1157 H   0  0  0  0  0
  -66.3140   87.6960   95.2377 H   0  0  0  0  0
  -62.9342   89.4448   95.9520 H   0  0  0  0  0
  -62.3981   87.4894   94.8187 H   0  0  0  0  0
  -63.7829   90.3899   93.9707 H   0  0  0  0  0
  -63.9320   87.6532   93.1264 H   0  0  0  0  0
  -65.9936   88.6369   93.2594 H   0  0  0  0  0
  -68.3789   90.3318   94.5551 H   0  0  0  0  0
  -68.7867   92.9304   93.9418 H   0  0  0  0  0
  -64.7465   95.2226   92.1774 H   0  0  0  0  0
  -62.1973   92.7687   91.9322 H   0  0  0  0  0
  -62.6909   94.4297   91.5076 H   0  0  0  0  0
  1  2  1  0  0  0
  2  3  1  0  0  0
  3  4  1  0  0  0
  3  5  1  0  0  0
  4  9  1  0  0  0
  5  6  1  0  0  0
  5  7  1  0  0  0
  7  8  1  0  0  0
  7  9  1  0  0  0
  9 10  1  0  0  0
 10 11  2  0  0  0
 10 20  1  0  0  0
 11 12  1  0  0  0
 12 13  1  0  0  0
 13 14  1  0  0  0
 13 20  2  0  0  0
 14 15  2  0  0  0
 14 16  1  0  0  0
 16 18  1  0  0  0
 18 19  2  0  0  0
 19 20  2  0  0  0
 18 17  1  0  0  0
  1 21  1  0  0  0
  2 22  1  0  0  0
  2 23  1  0  0  0
  3 24  1  0  0  0
  4 25  1  0  0  0
  5 26  1  0  0  0
  6 27  1  0  0  0
  7 28  1  0  0  0
  8 29  1  0  0  0
  9 30  1  0  0  0
 11 31  1  0  0  0
 12 32  1  0  0  0
 16 33  1  0  0  0
 17 34  1  0  0  0
 17 35  1  0  0  0
M  END
$$$$
