### 
### Created by X-TOOL on Sun Jun  3 11:44:38 2007
### 

@<TRIPOS>MOLECULE
1gah_ligand
   88    91     1     0     0
SMALL
GAST_HUCK


@<TRIPOS>ATOM
      1 C1A        33.0630   20.4520    8.1670 C.3       1 SUB1        0.014
      2 C2A        34.2960   20.3430    9.0830 C.3       1 SUB1        0.130
      3 C3A        33.9480   19.5450   10.3510 C.3       1 SUB1        0.122
      4 C4A        32.8780   20.2740   11.1810 C.3       1 SUB1        0.111
      5 C5A        31.7390   20.7860   10.3120 C.2       1 SUB1       -0.020
      6 C6A        30.5680   21.4600   10.9940 C.3       1 SUB1        0.072
      7 C7A        31.8250   20.8160    8.9520 C.2       1 SUB1       -0.054
      8 O2A        35.3420   19.7650    8.3320 O.3       1 SUB1       -0.382
      9 O3A        35.0740   19.3410   11.1710 O.3       1 SUB1       -0.384
     10 O4A        32.4660   19.3390   12.1790 O.3       1 SUB1       -0.378
     11 O6A        30.9890   22.7330   11.4850 O.3       1 SUB1       -0.384
     12 C1B        31.7070   18.1400    3.5020 C.3       1 SUB1        0.189
     13 C2B        33.1840   18.4940    3.7690 C.3       1 SUB1        0.137
     14 C3B        33.5050   18.3060    5.2630 C.3       1 SUB1        0.130
     15 C4B        32.5750   19.2330    6.0590 C.3       1 SUB1        0.034
     16 C5B        31.1300   18.8000    5.7710 C.3       1 SUB1        0.104
     17 C6B        30.1060   19.6670    6.4660 C.3       1 SUB1       -0.033
     18 N4B        32.8420   19.1530    7.5040 N.4       1 SUB1        0.243
     19 O2B        34.0300   17.6490    2.9980 O.3       1 SUB1       -0.384
     20 O3B        34.8840   18.5960    5.5130 O.3       1 SUB1       -0.383
     21 O5B        30.8370   18.8700    4.3560 O.3       1 SUB1       -0.340
     22 C1C        30.6290   13.4840    1.4320 C.3       1 SUB1        0.188
     23 C2C        30.3230   14.8020    0.7490 C.3       1 SUB1        0.134
     24 C3C        30.9830   15.9610    1.5120 C.3       1 SUB1        0.114
     25 C4C        30.6730   15.9180    3.0250 C.3       1 SUB1        0.118
     26 C5C        30.8440   14.5010    3.5800 C.3       1 SUB1        0.113
     27 C6C        30.3570   14.3390    5.0070 C.3       1 SUB1        0.073
     28 O2C        30.8330   14.7670   -0.5780 O.3       1 SUB1       -0.384
     29 O3C        30.5150   17.1840    0.9660 O.3       1 SUB1       -0.386
     30 O4C        31.6000   16.7590    3.7470 O.3       1 SUB1       -0.340
     31 O5C        30.1470   13.5390    2.7610 O.3       1 SUB1       -0.340
     32 O6C        30.8940   13.1660    5.5960 O.3       1 SUB1       -0.392
     33 C1D        34.8330   10.3670    0.5220 C.3       1 SUB1        0.185
     34 C2D        34.1130   10.9720   -0.6850 C.3       1 SUB1        0.134
     35 C3D        33.4490   12.2790   -0.2610 C.3       1 SUB1        0.114
     36 C4D        32.5170   12.0350    0.9230 C.3       1 SUB1        0.118
     37 C5D        33.2740   11.3490    2.0590 C.3       1 SUB1        0.113
     38 C6D        32.3350   10.9590    3.1810 C.3       1 SUB1        0.073
     39 O1D        35.7960   11.2580    0.9730 O.3       1 SUB1       -0.365
     40 O2D        35.0540   11.2290   -1.7170 O.3       1 SUB1       -0.384
     41 O3D        32.7190   12.8350   -1.3460 O.3       1 SUB1       -0.386
     42 O4D        32.0180   13.2990    1.3960 O.3       1 SUB1       -0.340
     43 O5D        33.9000   10.1340    1.5890 O.3       1 SUB1       -0.341
     44 O6D        31.3970    9.9880    2.7370 O.3       1 SUB1       -0.392
     45 H          33.2492   21.2360    7.4330 H         1 SUB1        0.095
     46 H          34.6229   21.3236    9.4289 H         1 SUB1        0.069
     47 H          33.5719   18.5797   10.0120 H         1 SUB1        0.067
     48 H          33.2673   21.1772   11.6509 H         1 SUB1        0.077
     49 H          30.2187   20.8429   11.8218 H         1 SUB1        0.071
     50 H          29.7526   21.5907   10.2826 H         1 SUB1        0.071
     51 H          30.9409   21.1233    8.3934 H         1 SUB1        0.030
     52 H          36.1342   19.7179    8.8723 H         1 SUB1        0.210
     53 H          34.8237   18.8086   11.9297 H         1 SUB1        0.210
     54 H          33.2301   19.0586   12.6881 H         1 SUB1        0.213
     55 H          30.2511   23.1672   11.9194 H         1 SUB1        0.213
     56 H          31.4174   18.3963    2.4829 H         1 SUB1        0.094
     57 H          33.3540   19.5334    3.4883 H         1 SUB1        0.067
     58 H          33.3389   17.2738    5.5713 H         1 SUB1        0.068
     59 H          32.7441   20.2662    5.7557 H         1 SUB1        0.090
     60 H          31.0614   17.7783    6.1446 H         1 SUB1        0.065
     61 H          30.2598   19.6156    7.5439 H         1 SUB1        0.026
     62 H          30.2171   20.6981    6.1306 H         1 SUB1        0.026
     63 H          29.1050   19.3104    6.2231 H         1 SUB1        0.026
     64 H          32.0156   18.7383    7.9347 H         1 SUB1        0.203
     65 H          33.7006   18.6140    7.6164 H         1 SUB1        0.203
     66 H          33.8799   16.7342    3.2474 H         1 SUB1        0.210
     67 H          35.0698   18.4804    6.4477 H         1 SUB1        0.210
     68 H          30.1447   12.6453    0.9318 H         1 SUB1        0.094
     69 H          29.2438   14.9545    0.7337 H         1 SUB1        0.067
     70 H          32.0637   15.8710    1.4018 H         1 SUB1        0.065
     71 H          29.6451   16.2579    3.1513 H         1 SUB1        0.065
     72 H          31.9193   14.3228    3.5671 H         1 SUB1        0.065
     73 H          29.2698   14.2607    4.9992 H         1 SUB1        0.058
     74 H          30.6814   15.2024    5.5878 H         1 SUB1        0.058
     75 H          31.7837   14.6362   -0.5509 H         1 SUB1        0.210
     76 H          30.7087   17.2084    0.0261 H         1 SUB1        0.210
     77 H          30.5721   13.0854    6.4968 H         1 SUB1        0.209
     78 H          35.2914    9.4248    0.2216 H         1 SUB1        0.094
     79 H          33.3578   10.2774   -1.0528 H         1 SUB1        0.067
     80 H          34.2254   12.9831    0.0383 H         1 SUB1        0.065
     81 H          31.6942   11.3964    0.6016 H         1 SUB1        0.065
     82 H          34.0199   12.0585    2.4172 H         1 SUB1        0.065
     83 H          31.7942   11.8456    3.5119 H         1 SUB1        0.058
     84 H          32.9193   10.5363    3.9984 H         1 SUB1        0.058
     85 H          36.4292   11.4254    0.2711 H         1 SUB1        0.213
     86 H          35.7229   11.8373   -1.3944 H         1 SUB1        0.210
     87 H          32.3281   13.6684   -1.0735 H         1 SUB1        0.210
     88 H          31.8656    9.2054    2.4379 H         1 SUB1        0.209
@<TRIPOS>BOND
     1    1    2 1  
     2    1    7 1  
     3   18    1 1  
     4    2    3 1  
     5    2    8 1  
     6    3    4 1  
     7    3    9 1  
     8    5    4 1  
     9    4   10 1  
    10    5    6 1  
    11    7    5 2  
    12    6   11 1  
    13   12   13 1  
    14   12   21 1  
    15   30   12 1  
    16   13   14 1  
    17   13   19 1  
    18   14   15 1  
    19   14   20 1  
    20   16   15 1  
    21   15   18 1  
    22   16   17 1  
    23   21   16 1  
    24   22   23 1  
    25   22   31 1  
    26   42   22 1  
    27   23   24 1  
    28   23   28 1  
    29   24   25 1  
    30   24   29 1  
    31   26   25 1  
    32   25   30 1  
    33   26   27 1  
    34   31   26 1  
    35   27   32 1  
    36   34   33 1  
    37   33   39 1  
    38   33   43 1  
    39   35   34 1  
    40   34   40 1  
    41   36   35 1  
    42   35   41 1  
    43   36   37 1  
    44   36   42 1  
    45   37   38 1  
    46   37   43 1  
    47   38   44 1  
    48    1   45 1  
    49    2   46 1  
    50    3   47 1  
    51    4   48 1  
    52    6   49 1  
    53    6   50 1  
    54    7   51 1  
    55    8   52 1  
    56    9   53 1  
    57   10   54 1  
    58   11   55 1  
    59   12   56 1  
    60   13   57 1  
    61   14   58 1  
    62   15   59 1  
    63   16   60 1  
    64   17   61 1  
    65   17   62 1  
    66   17   63 1  
    67   18   64 1  
    68   18   65 1  
    69   19   66 1  
    70   20   67 1  
    71   22   68 1  
    72   23   69 1  
    73   24   70 1  
    74   25   71 1  
    75   26   72 1  
    76   27   73 1  
    77   27   74 1  
    78   28   75 1  
    79   29   76 1  
    80   32   77 1  
    81   33   78 1  
    82   34   79 1  
    83   35   80 1  
    84   36   81 1  
    85   37   82 1  
    86   38   83 1  
    87   38   84 1  
    88   39   85 1  
    89   40   86 1  
    90   41   87 1  
    91   44   88 1  
@<TRIPOS>SUBSTRUCTURE
     1 SUB1        1 GROUP

