1gah_ligand
  -I-interpret- 

 88 91  0  0  0  0  0  0  0  0999 V2000
   33.0630   20.4520    8.1670 C   0  0  0  0  0
   34.2960   20.3430    9.0830 C   0  0  0  0  0
   33.9480   19.5450   10.3510 C   0  0  0  0  0
   32.8780   20.2740   11.1810 C   0  0  0  0  0
   31.7390   20.7860   10.3120 C   0  0  0  0  0
   30.5680   21.4600   10.9940 C   0  0  0  0  0
   31.8250   20.8160    8.9520 C   0  0  0  0  0
   35.3420   19.7650    8.3320 O   0  0  0  0  0
   35.0740   19.3410   11.1710 O   0  0  0  0  0
   32.4660   19.3390   12.1790 O   0  0  0  0  0
   30.9890   22.7330   11.4850 O   0  0  0  0  0
   31.7070   18.1400    3.5020 C   0  0  0  0  0
   33.1840   18.4940    3.7690 C   0  0  0  0  0
   33.5050   18.3060    5.2630 C   0  0  0  0  0
   32.5750   19.2330    6.0590 C   0  0  0  0  0
   31.1300   18.8000    5.7710 C   0  0  0  0  0
   30.1060   19.6670    6.4660 C   0  0  0  0  0
   32.8420   19.1530    7.5040 N   0  3  0  0  0
   34.0300   17.6490    2.9980 O   0  0  0  0  0
   34.8840   18.5960    5.5130 O   0  0  0  0  0
   30.8370   18.8700    4.3560 O   0  0  0  0  0
   30.6290   13.4840    1.4320 C   0  0  0  0  0
   30.3230   14.8020    0.7490 C   0  0  0  0  0
   30.9830   15.9610    1.5120 C   0  0  0  0  0
   30.6730   15.9180    3.0250 C   0  0  0  0  0
   30.8440   14.5010    3.5800 C   0  0  0  0  0
   30.3570   14.3390    5.0070 C   0  0  0  0  0
   30.8330   14.7670   -0.5780 O   0  0  0  0  0
   30.5150   17.1840    0.9660 O   0  0  0  0  0
   31.6000   16.7590    3.7470 O   0  0  0  0  0
   30.1470   13.5390    2.7610 O   0  0  0  0  0
   30.8940   13.1660    5.5960 O   0  0  0  0  0
   34.8330   10.3670    0.5220 C   0  0  0  0  0
   34.1130   10.9720   -0.6850 C   0  0  0  0  0
   33.4490   12.2790   -0.2610 C   0  0  0  0  0
   32.5170   12.0350    0.9230 C   0  0  0  0  0
   33.2740   11.3490    2.0590 C   0  0  0  0  0
   32.3350   10.9590    3.1810 C   0  0  0  0  0
   35.7960   11.2580    0.9730 O   0  0  0  0  0
   35.0540   11.2290   -1.7170 O   0  0  0  0  0
   32.7190   12.8350   -1.3460 O   0  0  0  0  0
   32.0180   13.2990    1.3960 O   0  0  0  0  0
   33.9000   10.1340    1.5890 O   0  0  0  0  0
   31.3970    9.9880    2.7370 O   0  0  0  0  0
   33.2492   21.2360    7.4330 H   0  0  0  0  0
   34.6229   21.3236    9.4289 H   0  0  0  0  0
   33.5719   18.5797   10.0120 H   0  0  0  0  0
   33.2673   21.1772   11.6509 H   0  0  0  0  0
   30.2187   20.8429   11.8218 H   0  0  0  0  0
   29.7526   21.5907   10.2826 H   0  0  0  0  0
   30.9409   21.1233    8.3934 H   0  0  0  0  0
   36.1342   19.7179    8.8723 H   0  0  0  0  0
   34.8237   18.8086   11.9297 H   0  0  0  0  0
   33.2301   19.0586   12.6881 H   0  0  0  0  0
   30.2511   23.1672   11.9194 H   0  0  0  0  0
   31.4174   18.3963    2.4829 H   0  0  0  0  0
   33.3540   19.5334    3.4883 H   0  0  0  0  0
   33.3389   17.2738    5.5713 H   0  0  0  0  0
   32.7441   20.2662    5.7557 H   0  0  0  0  0
   31.0614   17.7783    6.1446 H   0  0  0  0  0
   30.2598   19.6156    7.5439 H   0  0  0  0  0
   30.2171   20.6981    6.1306 H   0  0  0  0  0
   29.1050   19.3104    6.2231 H   0  0  0  0  0
   32.0156   18.7383    7.9347 H   0  0  0  0  0
   33.7006   18.6140    7.6164 H   0  0  0  0  0
   33.8799   16.7342    3.2474 H   0  0  0  0  0
   35.0698   18.4804    6.4477 H   0  0  0  0  0
   30.1447   12.6453    0.9318 H   0  0  0  0  0
   29.2438   14.9545    0.7337 H   0  0  0  0  0
   32.0637   15.8710    1.4018 H   0  0  0  0  0
   29.6451   16.2579    3.1513 H   0  0  0  0  0
   31.9193   14.3228    3.5671 H   0  0  0  0  0
   29.2698   14.2607    4.9992 H   0  0  0  0  0
   30.6814   15.2024    5.5878 H   0  0  0  0  0
   31.7837   14.6362   -0.5509 H   0  0  0  0  0
   30.7087   17.2084    0.0261 H   0  0  0  0  0
   30.5721   13.0854    6.4968 H   0  0  0  0  0
   35.2914    9.4248    0.2216 H   0  0  0  0  0
   33.3578   10.2774   -1.0528 H   0  0  0  0  0
   34.2254   12.9831    0.0383 H   0  0  0  0  0
   31.6942   11.3964    0.6016 H   0  0  0  0  0
   34.0199   12.0585    2.4172 H   0  0  0  0  0
   31.7942   11.8456    3.5119 H   0  0  0  0  0
   32.9193   10.5363    3.9984 H   0  0  0  0  0
   36.4292   11.4254    0.2711 H   0  0  0  0  0
   35.7229   11.8373   -1.3944 H   0  0  0  0  0
   32.3281   13.6684   -1.0735 H   0  0  0  0  0
   31.8656    9.2054    2.4379 H   0  0  0  0  0
  1  2  1  0  0  0
  1  7  1  0  0  0
 18  1  1  0  0  0
  2  3  1  0  0  0
  2  8  1  0  0  0
  3  4  1  0  0  0
  3  9  1  0  0  0
  5  4  1  0  0  0
  4 10  1  0  0  0
  5  6  1  0  0  0
  7  5  2  0  0  0
  6 11  1  0  0  0
 12 13  1  0  0  0
 12 21  1  0  0  0
 30 12  1  0  0  0
 13 14  1  0  0  0
 13 19  1  0  0  0
 14 15  1  0  0  0
 14 20  1  0  0  0
 16 15  1  0  0  0
 15 18  1  0  0  0
 16 17  1  0  0  0
 21 16  1  0  0  0
 22 23  1  0  0  0
 22 31  1  0  0  0
 42 22  1  0  0  0
 23 24  1  0  0  0
 23 28  1  0  0  0
 24 25  1  0  0  0
 24 29  1  0  0  0
 26 25  1  0  0  0
 25 30  1  0  0  0
 26 27  1  0  0  0
 31 26  1  0  0  0
 27 32  1  0  0  0
 34 33  1  0  0  0
 33 39  1  0  0  0
 33 43  1  0  0  0
 35 34  1  0  0  0
 34 40  1  0  0  0
 36 35  1  0  0  0
 35 41  1  0  0  0
 36 37  1  0  0  0
 36 42  1  0  0  0
 37 38  1  0  0  0
 37 43  1  0  0  0
 38 44  1  0  0  0
  1 45  1  0  0  0
  2 46  1  0  0  0
  3 47  1  0  0  0
  4 48  1  0  0  0
  6 49  1  0  0  0
  6 50  1  0  0  0
  7 51  1  0  0  0
  8 52  1  0  0  0
  9 53  1  0  0  0
 10 54  1  0  0  0
 11 55  1  0  0  0
 12 56  1  0  0  0
 13 57  1  0  0  0
 14 58  1  0  0  0
 15 59  1  0  0  0
 16 60  1  0  0  0
 17 61  1  0  0  0
 17 62  1  0  0  0
 17 63  1  0  0  0
 18 64  1  0  0  0
 18 65  1  0  0  0
 19 66  1  0  0  0
 20 67  1  0  0  0
 22 68  1  0  0  0
 23 69  1  0  0  0
 24 70  1  0  0  0
 25 71  1  0  0  0
 26 72  1  0  0  0
 27 73  1  0  0  0
 27 74  1  0  0  0
 28 75  1  0  0  0
 29 76  1  0  0  0
 32 77  1  0  0  0
 33 78  1  0  0  0
 34 79  1  0  0  0
 35 80  1  0  0  0
 36 81  1  0  0  0
 37 82  1  0  0  0
 38 83  1  0  0  0
 38 84  1  0  0  0
 39 85  1  0  0  0
 40 86  1  0  0  0
 41 87  1  0  0  0
 44 88  1  0  0  0
M  END
$$$$
