### 
### Created by X-TOOL on Mon Oct 24 23:44:54 2005
### 

@<TRIPOS>MOLECULE
1b3h_ligand
   73    73     1     0     0
SMALL
GAST_HUCK


@<TRIPOS>ATOM
      1 N           6.9910   16.6240   15.2240 N.4       1 SUB1        0.238
      2 CA          6.6310   17.9840   14.6770 C.3       1 SUB1        0.065
      3 C           5.3960   18.5290   15.3820 C.2       1 SUB1        0.227
      4 O           4.6070   17.7360   15.8990 O.2       1 SUB1       -0.391
      5 CB          6.4400   17.9170   13.1440 C.3       1 SUB1        0.008
      6 CG          5.3720   16.9100   12.6970 C.3       1 SUB1       -0.041
      7 CD          5.3310   16.7550   11.1780 C.3       1 SUB1       -0.012
      8 CE          6.6420   16.2530   10.5790 C.3       1 SUB1       -0.035
      9 NZ          6.7580   14.7730   10.8530 N.4       1 SUB1        0.219
     10 N           5.2020   19.8410   15.4620 N.am      1 SUB1       -0.261
     11 CA          4.0680   20.4700   16.0990 C.3       1 SUB1        0.132
     12 C           2.7730   20.4260   15.2790 C.2       1 SUB1        0.205
     13 O           2.6950   20.7490   14.0800 O.2       1 SUB1       -0.394
     14 CB          4.3500   21.9470   16.4480 C.3       1 SUB1       -0.010
     15 CG          5.1730   22.0820   17.7930 C.3       1 SUB1       -0.037
     16 CD2         4.9840   23.5300   18.3200 C.3       1 SUB1       -0.050
     17 CE2         5.8770   23.8190   19.5390 C.3       1 SUB1       -0.053
     18 CZ          7.3610   23.5330   19.2530 C.3       1 SUB1       -0.053
     19 CE1         7.5790   22.1440   18.6200 C.3       1 SUB1       -0.053
     20 CD1         6.6740   21.9280   17.4160 C.3       1 SUB1       -0.050
     21 N           1.6840   20.0100   15.9440 N.am      1 SUB1       -0.268
     22 CA          0.3890   19.9600   15.3340 C.3       1 SUB1        0.081
     23 C          -0.5990   20.8560   16.1180 C.2       1 SUB1        0.053
     24 O          -1.6080   21.2620   15.5260 O.co2     1 SUB1       -0.564
     25 CB         -0.2140   18.5380   15.2960 C.3       1 SUB1       -0.018
     26 CG         -1.2060   18.5350   14.1010 C.3       1 SUB1       -0.043
     27 CD         -2.1920   17.4180   14.3230 C.3       1 SUB1       -0.012
     28 CE         -2.8130   16.8010   13.0950 C.3       1 SUB1       -0.035
     29 NZ         -3.1180   17.6700   11.9600 N.4       1 SUB1        0.219
     30 OXT        -0.3650   21.2090   17.2690 O.co2     1 SUB1       -0.564
     31 H11         7.8091   16.2764   14.7486 H         1 SUB1        0.201
     32 H12         6.2222   15.9887   15.0778 H         1 SUB1        0.201
     33 H13         7.1823   16.6986   16.2109 H         1 SUB1        0.201
     34 H21         7.4669   18.6687   14.8830 H         1 SUB1        0.110
     35 H51         7.3989   17.6313   12.6871 H         1 SUB1        0.035
     36 H52         6.1466   18.9152   12.7870 H         1 SUB1        0.035
     37 H61         4.3882   17.2579   13.0450 H         1 SUB1        0.027
     38 H62         5.5956   15.9318   13.1477 H         1 SUB1        0.027
     39 H71         5.0988   17.7346   10.7347 H         1 SUB1        0.032
     40 H72         4.5357   16.0392   10.9229 H         1 SUB1        0.032
     41 H81         7.4880   16.7832   11.0407 H         1 SUB1        0.081
     42 H82         6.6461   16.4308    9.4935 H         1 SUB1        0.081
     43 H91         7.6202   14.4257   10.4630 H         1 SUB1        0.199
     44 H92         5.9800   14.2911   10.4306 H         1 SUB1        0.199
     45 H93         6.7514   14.6140   11.8483 H         1 SUB1        0.199
     46 H101        5.8918   20.4371   15.0510 H         1 SUB1        0.188
     47 H111        3.8871   19.9246   17.0370 H         1 SUB1        0.080
     48 H141        3.3922   22.4760   16.5612 H         1 SUB1        0.032
     49 H142        4.9264   22.4032   15.6297 H         1 SUB1        0.032
     50 H151        4.8596   21.3356   18.5377 H         1 SUB1        0.030
     51 H161        3.9318   23.6684   18.6094 H         1 SUB1        0.027
     52 H162        5.2394   24.2368   17.5168 H         1 SUB1        0.027
     53 H171        5.5492   23.1856   20.3764 H         1 SUB1        0.026
     54 H172        5.7673   24.8780   19.8154 H         1 SUB1        0.026
     55 H181        7.9193   23.5816   20.1996 H         1 SUB1        0.026
     56 H182        7.7422   24.2998   18.5626 H         1 SUB1        0.026
     57 H191        7.3626   21.3711   19.3722 H         1 SUB1        0.026
     58 H192        8.6274   22.0591   18.2981 H         1 SUB1        0.026
     59 H201        6.9257   22.6688   16.6428 H         1 SUB1        0.027
     60 H202        6.8408   20.9149   17.0213 H         1 SUB1        0.027
     61 H211        1.7799   19.7253   16.8978 H         1 SUB1        0.190
     62 H221        0.4806   20.3323   14.3030 H         1 SUB1        0.078
     63 H251       -0.7440   18.3207   16.2351 H         1 SUB1        0.032
     64 H252        0.5771   17.7898   15.1398 H         1 SUB1        0.032
     65 H261       -0.6590   18.3697   13.1611 H         1 SUB1        0.027
     66 H262       -1.7360   19.4976   14.0524 H         1 SUB1        0.027
     67 H271       -3.0084   17.8142   14.9446 H         1 SUB1        0.032
     68 H272       -1.6704   16.6181   14.8690 H         1 SUB1        0.032
     69 H281       -3.7573   16.3319   13.4086 H         1 SUB1        0.081
     70 H282       -2.1205   16.0261   12.7346 H         1 SUB1        0.081
     71 H291       -3.5258   17.1229   11.2181 H         1 SUB1        0.199
     72 H292       -2.2694   18.1030   11.6308 H         1 SUB1        0.199
     73 H293       -3.7692   18.3833   12.2484 H         1 SUB1        0.199
@<TRIPOS>BOND
     1    3    2 1  
     2    2    5 1  
     3    2    1 1  
     4    5    6 1  
     5    6    7 1  
     6    7    8 1  
     7    8    9 1  
     8    3    4 2  
     9   11   10 1  
    10   11   14 1  
    11   12   11 1  
    12   12   13 2  
    13   14   15 1  
    14   15   20 1  
    15   15   16 1  
    16   16   17 1  
    17   17   18 1  
    18   19   18 1  
    19   20   19 1  
    20   22   23 1  
    21   22   25 1  
    22   21   22 1  
    23   25   26 1  
    24   26   27 1  
    25   27   28 1  
    26   28   29 1  
    27   23   30 2  
    28   23   24 2  
    29   10    3 am 
    30   12   21 am 
    31    1   31 1  
    32    1   32 1  
    33    1   33 1  
    34    2   34 1  
    35    5   35 1  
    36    5   36 1  
    37    6   37 1  
    38    6   38 1  
    39    7   39 1  
    40    7   40 1  
    41    8   41 1  
    42    8   42 1  
    43    9   43 1  
    44    9   44 1  
    45    9   45 1  
    46   10   46 1  
    47   11   47 1  
    48   14   48 1  
    49   14   49 1  
    50   15   50 1  
    51   16   51 1  
    52   16   52 1  
    53   17   53 1  
    54   17   54 1  
    55   18   55 1  
    56   18   56 1  
    57   19   57 1  
    58   19   58 1  
    59   20   59 1  
    60   20   60 1  
    61   21   61 1  
    62   22   62 1  
    63   25   63 1  
    64   25   64 1  
    65   26   65 1  
    66   26   66 1  
    67   27   67 1  
    68   27   68 1  
    69   28   69 1  
    70   28   70 1  
    71   29   71 1  
    72   29   72 1  
    73   29   73 1  
@<TRIPOS>SUBSTRUCTURE
     1 SUB1        1 GROUP

