1kel_ligand
  -I-interpret- 

 40 40  0  0  0  0  0  0  0  0999 V2000
  -23.4170   36.2400   17.2300 C   0  0  0  0  0
  -23.5630   37.6280   17.1240 C   0  0  0  0  0
  -22.6270   38.3670   16.3520 C   0  0  0  0  0
  -21.5130   37.7280   15.8430 C   0  0  0  0  0
  -21.2980   36.3540   16.0730 C   0  0  0  0  0
  -22.2450   35.6210   16.7750 C   0  0  0  0  0
  -22.0310   34.1620   17.0390 N   0  0  0  0  0
  -22.8000   33.5630   17.6990 O   0  0  0  0  0
  -21.2310   33.5430   16.4130 O   0  0  0  0  0
  -22.8860   39.8500   16.0920 C   0  0  0  0  0
  -24.2810   40.2910   16.3140 N   0  3  0  0  0
  -25.2730   39.7500   15.3070 C   0  0  0  0  0
  -27.0840   39.7970   15.6940 P   0  0  0  0  0
  -27.4690   38.8120   16.8460 O   0  5  0  0  0
  -27.6150   41.2580   16.1360 O   0  5  0  0  0
  -27.7450   39.4050   14.4660 O   0  0  0  0  0
  -24.4950   41.7850   16.6520 C   0  0  0  0  0
  -24.0730   42.1300   18.0900 C   0  0  0  0  0
  -24.4760   41.0040   19.0580 C   0  0  0  0  0
  -24.3590   41.5060   20.5040 C   0  0  0  0  0
  -25.5060   42.4520   20.8130 C   0  0  0  0  0
  -26.8010   42.1360   20.4540 O   0  5  0  0  0
  -25.2670   43.5050   21.3940 O   0  0  0  0  0
  -24.2240   35.6550   17.6480 H   0  0  0  0  0
  -24.3670   38.1070   17.6190 H   0  0  0  0  0
  -20.7800   38.3020   15.2680 H   0  0  0  0  0
  -20.3950   35.8880   15.7060 H   0  0  0  0  0
  -22.5530   40.0370   15.1060 H   0  0  0  0  0
  -22.1070   40.3670   16.6360 H   0  0  0  0  0
  -24.6480   39.7160   17.1610 H   0  0  0  0  0
  -25.0180   38.7640   15.1030 H   0  0  0  0  0
  -25.1560   40.2510   14.3840 H   0  0  0  0  0
  -25.4820   42.1760   16.4980 H   0  0  0  0  0
  -23.9510   42.4500   15.9860 H   0  0  0  0  0
  -24.5410   43.0440   18.3520 H   0  0  0  0  0
  -22.9860   42.2550   18.1130 H   0  0  0  0  0
  -23.8290   40.1320   18.9230 H   0  0  0  0  0
  -25.4980   40.6910   18.8530 H   0  0  0  0  0
  -23.4190   42.0410   20.6330 H   0  0  0  0  0
  -24.3750   40.6720   21.1930 H   0  0  0  0  0
  1 24  1  0  0  0
  1  6  4  0  0  0
  1  2  4  0  0  0
  2 25  1  0  0  0
  2  3  4  0  0  0
  3 10  1  0  0  0
  3  4  4  0  0  0
  4 26  1  0  0  0
  4  5  4  0  0  0
  5 27  1  0  0  0
  5  6  4  0  0  0
  6  7  1  0  0  0
  7  9  2  0  0  0
  7  8  2  0  0  0
 10 29  1  0  0  0
 10 28  1  0  0  0
 10 11  1  0  0  0
 11 30  1  0  0  0
 11 17  1  0  0  0
 11 12  1  0  0  0
 12 32  1  0  0  0
 12 31  1  0  0  0
 12 13  1  0  0  0
 13 16  2  0  0  0
 13 15  1  0  0  0
 13 14  1  0  0  0
 17 34  1  0  0  0
 17 33  1  0  0  0
 17 18  1  0  0  0
 18 36  1  0  0  0
 18 35  1  0  0  0
 18 19  1  0  0  0
 19 38  1  0  0  0
 19 37  1  0  0  0
 19 20  1  0  0  0
 20 40  1  0  0  0
 20 39  1  0  0  0
 20 21  1  0  0  0
 21 23  2  0  0  0
 21 22  1  0  0  0
M  END
$$$$
