### 
### Created by X-TOOL on Mon Oct 24 23:01:52 2005
### 

@<TRIPOS>MOLECULE
1kel_ligand
   40    40     1     0     0
SMALL
GAST_HUCK


@<TRIPOS>ATOM
      1 C1        -23.4170   36.2400   17.2300 C.ar      1 SUB1       -0.025
      2 C2        -23.5630   37.6280   17.1240 C.ar      1 SUB1       -0.047
      3 C3        -22.6270   38.3670   16.3520 C.ar      1 SUB1        0.007
      4 C4        -21.5130   37.7280   15.8430 C.ar      1 SUB1       -0.047
      5 C5        -21.2980   36.3540   16.0730 C.ar      1 SUB1       -0.025
      6 C6        -22.2450   35.6210   16.7750 C.ar      1 SUB1        0.192
      7 N7        -22.0310   34.1620   17.0390 N.2       1 SUB1        0.310
      8 O8        -22.8000   33.5630   17.6990 O.2       1 SUB1        0.175
      9 O9        -21.2310   33.5430   16.4130 O.2       1 SUB1        0.175
     10 C10       -22.8860   39.8500   16.0920 C.3       1 SUB1        0.005
     11 N11       -24.2810   40.2910   16.3140 N.4       1 SUB1        0.253
     12 C12       -25.2730   39.7500   15.3070 C.3       1 SUB1        0.015
     13 P13       -27.0840   39.7970   15.6940 P.3       1 SUB1        0.108
     14 O14       -27.4690   38.8120   16.8460 O.co2     1 SUB1       -0.539
     15 O15       -27.6150   41.2580   16.1360 O.co2     1 SUB1       -0.539
     16 O16       -27.7450   39.4050   14.4660 O.co2     1 SUB1       -0.539
     17 C17       -24.4950   41.7850   16.6520 C.3       1 SUB1       -0.030
     18 C18       -24.0730   42.1300   18.0900 C.3       1 SUB1       -0.010
     19 C19       -24.4760   41.0040   19.0580 C.3       1 SUB1       -0.037
     20 C20       -24.3590   41.5060   20.5040 C.3       1 SUB1       -0.014
     21 C21       -25.5060   42.4520   20.8130 C.2       1 SUB1        0.028
     22 O22       -26.8010   42.1360   20.4540 O.co2     1 SUB1       -0.567
     23 O23       -25.2670   43.5050   21.3940 O.co2     1 SUB1       -0.567
     24 H11       -24.2240   35.6550   17.6480 H         1 SUB1        0.068
     25 H21       -24.3670   38.1070   17.6190 H         1 SUB1        0.058
     26 H41       -20.7800   38.3020   15.2680 H         1 SUB1        0.058
     27 H51       -20.3950   35.8880   15.7060 H         1 SUB1        0.068
     28 H101      -22.5530   40.0370   15.1060 H         1 SUB1        0.099
     29 H102      -22.1070   40.3670   16.6360 H         1 SUB1        0.099
     30 H111      -24.6480   39.7160   17.1610 H         1 SUB1        0.205
     31 H121      -25.0180   38.7640   15.1030 H         1 SUB1        0.089
     32 H122      -25.1560   40.2510   14.3840 H         1 SUB1        0.089
     33 H171      -25.4820   42.1760   16.4980 H         1 SUB1        0.082
     34 H172      -23.9510   42.4500   15.9860 H         1 SUB1        0.082
     35 H181      -24.5410   43.0440   18.3520 H         1 SUB1        0.032
     36 H182      -22.9860   42.2550   18.1130 H         1 SUB1        0.032
     37 H191      -23.8290   40.1320   18.9230 H         1 SUB1        0.030
     38 H192      -25.4980   40.6910   18.8530 H         1 SUB1        0.030
     39 H201      -23.4190   42.0410   20.6330 H         1 SUB1        0.048
     40 H202      -24.3750   40.6720   21.1930 H         1 SUB1        0.048
@<TRIPOS>BOND
     1    1   24 1  
     2    1    6 ar 
     3    1    2 ar 
     4    2   25 1  
     5    2    3 ar 
     6    3   10 1  
     7    3    4 ar 
     8    4   26 1  
     9    4    5 ar 
    10    5   27 1  
    11    5    6 ar 
    12    6    7 1  
    13    7    9 2  
    14    7    8 2  
    15   10   29 1  
    16   10   28 1  
    17   10   11 1  
    18   11   30 1  
    19   11   17 1  
    20   11   12 1  
    21   12   32 1  
    22   12   31 1  
    23   12   13 1  
    24   13   16 2  
    25   13   15 2  
    26   13   14 2  
    27   17   34 1  
    28   17   33 1  
    29   17   18 1  
    30   18   36 1  
    31   18   35 1  
    32   18   19 1  
    33   19   38 1  
    34   19   37 1  
    35   19   20 1  
    36   20   40 1  
    37   20   39 1  
    38   20   21 1  
    39   21   23 2  
    40   21   22 2  
@<TRIPOS>SUBSTRUCTURE
     1 SUB1        1 GROUP

