1n1m_ligand
  -I-interpret- 

 31 31  0  0  0  0  0  0  0  0999 V2000
   84.1890   77.2130   97.3480 C   0  0  0  0  0
   82.8540   76.3810   97.0320 C   0  0  0  0  0
   82.6620   75.5160   98.2090 N   0  0  0  0  0
   84.0340   75.2340   98.6920 C   0  0  0  0  0
   84.6320   76.6600   98.7760 C   0  0  0  0  0
   81.8000   74.3630   97.9530 C   0  0  0  0  0
   80.4200   74.3850   97.4480 C   0  0  0  0  0
   79.2960   74.2300   98.4320 C   0  0  0  0  0
   79.2210   75.2820   99.4580 C   0  0  0  0  0
   82.3220   73.1150   98.2010 O   0  0  0  0  0
   80.2150   73.3530   96.3790 N   0  3  0  0  0
   77.8050   74.2860   97.6340 C   0  0  0  0  0
   84.9708   77.0150   96.6000 H   0  0  0  0  0
   83.9850   78.2926   97.4005 H   0  0  0  0  0
   81.9909   77.0524   96.9129 H   0  0  0  0  0
   82.9783   75.7660   96.1285 H   0  0  0  0  0
   84.0268   74.7539   99.6816 H   0  0  0  0  0
   84.5977   74.6148   97.9788 H   0  0  0  0  0
   85.7257   76.6294   98.8896 H   0  0  0  0  0
   84.1851   77.2335   99.6014 H   0  0  0  0  0
   80.2896   75.3692   96.9743 H   0  0  0  0  0
   79.4032   73.2522   98.9243 H   0  0  0  0  0
   78.3691   75.0743  100.1222 H   0  0  0  0  0
   80.1456   75.2916  100.0537 H   0  0  0  0  0
   79.0723   76.2617   98.9805 H   0  0  0  0  0
   80.9563   73.4315   95.7005 H   0  0  0  0  0
   80.2368   72.4300   96.7835 H   0  0  0  0  0
   79.3314   73.5057   95.9187 H   0  0  0  0  0
   77.7914   73.5184   96.8462 H   0  0  0  0  0
   76.9909   74.0835   98.3455 H   0  0  0  0  0
   77.6631   75.2747   97.1732 H   0  0  0  0  0
  1  2  1  0  0  0
  1  5  1  0  0  0
  2  3  1  0  0  0
  3  4  1  0  0  0
  3  6  1  0  0  0
  4  5  1  0  0  0
  6  7  1  0  0  0
  6 10  2  0  0  0
  7  8  1  0  0  0
  7 11  1  0  0  0
  8  9  1  0  0  0
  8 12  1  0  0  0
  1 13  1  0  0  0
  1 14  1  0  0  0
  2 15  1  0  0  0
  2 16  1  0  0  0
  4 17  1  0  0  0
  4 18  1  0  0  0
  5 19  1  0  0  0
  5 20  1  0  0  0
  7 21  1  0  0  0
  8 22  1  0  0  0
  9 23  1  0  0  0
  9 24  1  0  0  0
  9 25  1  0  0  0
 11 26  1  0  0  0
 11 27  1  0  0  0
 11 28  1  0  0  0
 12 29  1  0  0  0
 12 30  1  0  0  0
 12 31  1  0  0  0
M  END
$$$$
