### 
### Created by X-TOOL on Tue Oct 25 02:40:04 2005
### 

@<TRIPOS>MOLECULE
1n1m_ligand
   31    31     1     0     0
SMALL
GAST_HUCK


@<TRIPOS>ATOM
      1 C1         84.1890   77.2130   97.3480 C.3       1 SUB1       -0.031
      2 C2         82.8540   76.3810   97.0320 C.3       1 SUB1        0.034
      3 N3         82.6620   75.5160   98.2090 N.am      1 SUB1       -0.269
      4 C4         84.0340   75.2340   98.6920 C.3       1 SUB1        0.034
      5 C5         84.6320   76.6600   98.7760 C.3       1 SUB1       -0.031
      6 C14        81.8000   74.3630   97.9530 C.2       1 SUB1        0.227
      7 C15        80.4200   74.3850   97.4480 C.3       1 SUB1        0.067
      8 C16        79.2960   74.2300   98.4320 C.3       1 SUB1        0.014
      9 C17        79.2210   75.2820   99.4580 C.3       1 SUB1       -0.055
     10 O18        82.3220   73.1150   98.2010 O.2       1 SUB1       -0.391
     11 N19        80.2150   73.3530   96.3790 N.4       1 SUB1        0.238
     12 C26        77.8050   74.2860   97.6340 C.3       1 SUB1       -0.055
     13 H11        84.9708   77.0150   96.6000 H         1 SUB1        0.029
     14 H12        83.9850   78.2926   97.4005 H         1 SUB1        0.029
     15 H21        81.9909   77.0524   96.9129 H         1 SUB1        0.052
     16 H22        82.9783   75.7660   96.1285 H         1 SUB1        0.052
     17 H41        84.0268   74.7539   99.6816 H         1 SUB1        0.052
     18 H42        84.5977   74.6148   97.9788 H         1 SUB1        0.052
     19 H51        85.7257   76.6294   98.8896 H         1 SUB1        0.029
     20 H52        84.1851   77.2335   99.6014 H         1 SUB1        0.029
     21 H71        80.2896   75.3692   96.9743 H         1 SUB1        0.110
     22 H81        79.4032   73.2522   98.9243 H         1 SUB1        0.038
     23 H91        78.3691   75.0743  100.1222 H         1 SUB1        0.024
     24 H92        80.1456   75.2916  100.0537 H         1 SUB1        0.024
     25 H93        79.0723   76.2617   98.9805 H         1 SUB1        0.024
     26 H111       80.9563   73.4315   95.7005 H         1 SUB1        0.201
     27 H112       80.2368   72.4300   96.7835 H         1 SUB1        0.201
     28 H113       79.3314   73.5057   95.9187 H         1 SUB1        0.201
     29 H121       77.7914   73.5184   96.8462 H         1 SUB1        0.024
     30 H122       76.9909   74.0835   98.3455 H         1 SUB1        0.024
     31 H123       77.6631   75.2747   97.1732 H         1 SUB1        0.024
@<TRIPOS>BOND
     1    1    2 1  
     2    1    5 1  
     3    2    3 1  
     4    3    4 1  
     5    3    6 am 
     6    4    5 1  
     7    6    7 1  
     8    6   10 2  
     9    7    8 1  
    10    7   11 1  
    11    8    9 1  
    12    8   12 1  
    13    1   13 1  
    14    1   14 1  
    15    2   15 1  
    16    2   16 1  
    17    4   17 1  
    18    4   18 1  
    19    5   19 1  
    20    5   20 1  
    21    7   21 1  
    22    8   22 1  
    23    9   23 1  
    24    9   24 1  
    25    9   25 1  
    26   11   26 1  
    27   11   27 1  
    28   11   28 1  
    29   12   29 1  
    30   12   30 1  
    31   12   31 1  
@<TRIPOS>SUBSTRUCTURE
     1 SUB1        1 GROUP

