220l_ligand
  -I-interpret- 

 12 12  0  0  0  0  0  0  0  0999 V2000
   30.3320    8.8900    1.1050 C   0  0  0  0  0
   30.9980   10.0850    1.3100 C   0  0  0  0  0
   30.2880   11.2650    1.4270 C   0  0  0  0  0
   28.9160   11.2430    1.3150 C   0  0  0  0  0
   28.2450   10.0330    1.1040 C   0  0  0  0  0
   28.9480    8.8550    1.0060 C   0  0  0  0  0
   30.8981    7.9694    1.0206 H   0  0  0  0  0
   32.0797   10.0960    1.3791 H   0  0  0  0  0
   30.8070   12.1998    1.6054 H   0  0  0  0  0
   28.3533   12.1664    1.3905 H   0  0  0  0  0
   27.1645   10.0243    1.0173 H   0  0  0  0  0
   28.4299    7.9150    0.8540 H   0  0  0  0  0
  1  2  4  0  0  0
  1  6  4  0  0  0
  2  3  4  0  0  0
  3  4  4  0  0  0
  4  5  4  0  0  0
  5  6  4  0  0  0
  1  7  1  0  0  0
  2  8  1  0  0  0
  3  9  1  0  0  0
  4 10  1  0  0  0
  5 11  1  0  0  0
  6 12  1  0  0  0
M  END
$$$$
