2br6_ligand
  -I-interpret- 

 15 15  0  0  0  0  0  0  0  0999 V2000
    9.0250   20.9090   13.5860 N   0  3  0  0  0
    8.6970   22.1290   13.4550 C   0  0  0  0  0
    9.2120   23.0850   12.5000 C   0  0  0  0  0
    9.4140   22.9260   11.2950 O   0  0  0  0  0
    8.0430   22.8740   14.6590 C   0  0  0  0  0
    8.7190   24.2340   14.5760 C   0  0  0  0  0
    9.4110   24.3440   13.2390 O   0  0  0  0  0
    8.4946   20.4974   14.3379 H   0  0  0  0  0
   10.0090   20.8462   13.7953 H   0  0  0  0  0
    8.8316   20.4151   12.7288 H   0  0  0  0  0
    7.7724   21.9049   12.9029 H   0  0  0  0  0
    8.2662   22.3717   15.6118 H   0  0  0  0  0
    6.9532   22.9586   14.5355 H   0  0  0  0  0
    9.4577   24.3312   15.3852 H   0  0  0  0  0
    7.9651   25.0295   14.6701 H   0  0  0  0  0
  1  2  1  0  0  0
  2  3  1  0  0  0
  2  5  1  0  0  0
  3  4  2  0  0  0
  3  7  1  0  0  0
  5  6  1  0  0  0
  6  7  1  0  0  0
  1  8  1  0  0  0
  1  9  1  0  0  0
  1 10  1  0  0  0
  2 11  1  0  0  0
  5 12  1  0  0  0
  5 13  1  0  0  0
  6 14  1  0  0  0
  6 15  1  0  0  0
M  END
$$$$
