### 
### Created by X-TOOL on Mon Oct 24 22:34:49 2005
### 

@<TRIPOS>MOLECULE
2br6_ligand
   15    15     1     0     0
SMALL
GAST_HUCK


@<TRIPOS>ATOM
      1 N           9.0250   20.9090   13.5860 N.4       1 SUB1        0.239
      2 CA          8.6970   22.1290   13.4550 C.3       1 SUB1        0.079
      3 C           9.2120   23.0850   12.5000 C.2       1 SUB1        0.283
      4 O           9.4140   22.9260   11.2950 O.2       1 SUB1       -0.364
      5 CB          8.0430   22.8740   14.6590 C.3       1 SUB1        0.037
      6 CG          8.7190   24.2340   14.5760 C.3       1 SUB1        0.084
      7 OD          9.4110   24.3440   13.2390 O.3       1 SUB1       -0.272
      8 H11         8.4946   20.4974   14.3379 H         1 SUB1        0.202
      9 H12        10.0090   20.8462   13.7953 H         1 SUB1        0.202
     10 H13         8.8316   20.4151   12.7288 H         1 SUB1        0.202
     11 H21         7.7724   21.9049   12.9029 H         1 SUB1        0.112
     12 H51         8.2662   22.3717   15.6118 H         1 SUB1        0.037
     13 H52         6.9532   22.9586   14.5355 H         1 SUB1        0.037
     14 H61         9.4577   24.3312   15.3852 H         1 SUB1        0.062
     15 H62         7.9651   25.0295   14.6701 H         1 SUB1        0.062
@<TRIPOS>BOND
     1    1    2 1  
     2    2    3 1  
     3    2    5 1  
     4    3    4 2  
     5    3    7 1  
     6    5    6 1  
     7    6    7 1  
     8    1    8 1  
     9    1    9 1  
    10    1   10 1  
    11    2   11 1  
    12    5   12 1  
    13    5   13 1  
    14    6   14 1  
    15    6   15 1  
@<TRIPOS>SUBSTRUCTURE
     1 SUB1        1 GROUP

