1fv0_ligand
  -I-interpret- 

 36 39  0  0  0  0  0  0  0  0999 V2000
   13.7509   22.8582   39.1905 H   0  0  0  0  0
   18.9642   22.9932   43.6247 H   0  0  0  0  0
   13.6432   23.0124   45.3734 H   0  0  0  0  0
   14.5816   23.0535   47.6433 H   0  0  0  0  0
   10.7521   23.7972   42.6261 H   0  0  0  0  0
   10.7778   22.0016   42.6695 H   0  0  0  0  0
   20.9185   22.5614   46.5580 H   0  0  0  0  0
   20.5260   21.7244   45.0179 H   0  0  0  0  0
   20.1067   20.9594   46.5882 H   0  0  0  0  0
   18.0470   23.0513   48.3394 H   0  0  0  0  0
   15.5110   22.9080   40.4330 C   0  0  0  0  0
   14.1180   22.8870   40.2100 C   0  0  0  0  0
   13.2010   22.9020   41.2540 C   0  0  0  0  0
   13.6190   22.9400   42.6060 C   0  0  0  0  0
   15.0560   22.9660   42.9560 C   0  0  0  0  0
   16.0310   22.9540   41.8090 C   0  0  0  0  0
   15.5570   22.9990   44.3250 C   0  0  0  0  0
   17.0210   23.0050   44.5500 C   0  0  0  0  0
   17.8960   22.9940   43.4400 C   0  0  0  0  0
   17.4450   22.9840   42.1020 C   0  0  0  0  0
   14.7200   23.0160   45.4980 C   0  0  0  0  0
   15.2500   23.0370   46.7900 C   0  0  0  0  0
   16.6320   23.0370   46.9950 C   0  0  0  0  0
   17.5620   23.0200   45.8850 C   0  0  0  0  0
   11.3760   22.9040   42.4750 C   0  0  0  0  0
   16.3290   23.0260   39.1400 C   0  0  0  0  0
   20.1900   21.9140   46.0480 C   0  0  0  0  0
   18.8630   22.5860   46.0210 O   0  0  0  0  0
   11.8510   22.8780   41.1170 O   0  0  0  0  0
   12.4940   22.9420   43.3850 O   0  0  0  0  0
   17.2480   22.2820   38.8000 O   0  5  0  0  0
   15.8920   23.4950   38.0950 O   0  0  0  0  0
   17.0970   23.0530   48.3350 O   0  0  0  0  0
   18.7170   23.9890   40.2160 O   0  0  0  0  0
   19.5990   23.1920   41.9230 O   0  0  0  0  0
   18.7030   23.3900   41.0990 N   0  0  0  0  0
 12  1  1  0  0  0
 19  2  1  0  0  0
 21  3  1  0  0  0
 22  4  1  0  0  0
 25  5  1  0  0  0
 25  6  1  0  0  0
 27  7  1  0  0  0
 27  8  1  0  0  0
 27  9  1  0  0  0
 33 10  1  0  0  0
 11 26  1  0  0  0
 16 11  4  0  0  0
 12 11  4  0  0  0
 13 12  4  0  0  0
 13 29  1  0  0  0
 14 13  4  0  0  0
 30 14  1  0  0  0
 14 15  4  0  0  0
 15 17  4  0  0  0
 15 16  4  0  0  0
 16 20  4  0  0  0
 20 36  1  0  0  0
 20 19  4  0  0  0
 18 19  4  0  0  0
 18 24  4  0  0  0
 17 18  4  0  0  0
 17 21  4  0  0  0
 21 22  4  0  0  0
 22 23  4  0  0  0
 23 33  1  0  0  0
 24 23  4  0  0  0
 24 28  1  0  0  0
 28 27  1  0  0  0
 36 34  2  0  0  0
 36 35  2  0  0  0
 30 25  1  0  0  0
 25 29  1  0  0  0
 26 32  2  0  0  0
 26 31  1  0  0  0
M  END
$$$$
