### 
### Created by X-TOOL on Mon Oct 24 22:33:50 2005
### 

@<TRIPOS>MOLECULE
1fv0_ligand
   36    39     1     0     0
SMALL
GAST_HUCK


@<TRIPOS>ATOM
      1 H121       13.7509   22.8582   39.1905 H         1 SUB1        0.105
      2 H191       18.9642   22.9932   43.6247 H         1 SUB1        0.110
      3 H211       13.6432   23.0124   45.3734 H         1 SUB1        0.094
      4 H221       14.5816   23.0535   47.6433 H         1 SUB1        0.075
      5 H251       10.7521   23.7972   42.6261 H         1 SUB1        0.102
      6 H252       10.7778   22.0016   42.6695 H         1 SUB1        0.102
      7 H271       20.9185   22.5614   46.5580 H         1 SUB1        0.063
      8 H272       20.5260   21.7244   45.0179 H         1 SUB1        0.063
      9 H273       20.1067   20.9594   46.5882 H         1 SUB1        0.063
     10 H331       18.0470   23.0513   48.3394 H         1 SUB1        0.271
     11 C1         15.5110   22.9080   40.4330 C.ar      1 SUB1        0.122
     12 C2         14.1180   22.8870   40.2100 C.ar      1 SUB1        0.054
     13 C3         13.2010   22.9020   41.2540 C.ar      1 SUB1        0.209
     14 C4         13.6190   22.9400   42.6060 C.ar      1 SUB1        0.224
     15 C5         15.0560   22.9660   42.9560 C.ar      1 SUB1        0.104
     16 C6         16.0310   22.9540   41.8090 C.ar      1 SUB1        0.093
     17 C7         15.5570   22.9990   44.3250 C.ar      1 SUB1        0.051
     18 C8         17.0210   23.0050   44.5500 C.ar      1 SUB1        0.104
     19 C9         17.8960   22.9940   43.4400 C.ar      1 SUB1        0.033
     20 C10        17.4450   22.9840   42.1020 C.ar      1 SUB1        0.141
     21 C11        14.7200   23.0160   45.4980 C.ar      1 SUB1       -0.012
     22 C12        15.2500   23.0370   46.7900 C.ar      1 SUB1        0.029
     23 C13        16.6320   23.0370   46.9950 C.ar      1 SUB1        0.213
     24 C14        17.5620   23.0200   45.8850 C.ar      1 SUB1        0.236
     25 C15        11.3760   22.9040   42.4750 C.3       1 SUB1        0.210
     26 C16        16.3290   23.0260   39.1400 C.2       1 SUB1        0.196
     27 C17        20.1900   21.9140   46.0480 C.3       1 SUB1        0.083
     28 O1         18.8630   22.5860   46.0210 O.3       1 SUB1       -0.256
     29 O2         11.8510   22.8780   41.1170 O.3       1 SUB1       -0.261
     30 O3         12.4940   22.9420   43.3850 O.3       1 SUB1       -0.234
     31 O4         17.2480   22.2820   38.8000 O.co2     1 SUB1       -0.464
     32 O5         15.8920   23.4950   38.0950 O.co2     1 SUB1       -0.464
     33 O6         17.0970   23.0530   48.3350 O.3       1 SUB1       -0.292
     34 O7         18.7170   23.9890   40.2160 O.2       1 SUB1       -0.485
     35 O8         19.5990   23.1920   41.9230 O.2       1 SUB1       -0.485
     36 N1         18.7030   23.3900   41.0990 N.2       1 SUB1       -0.200
@<TRIPOS>BOND
     1   12    1 1  
     2   19    2 1  
     3   21    3 1  
     4   22    4 1  
     5   25    5 1  
     6   25    6 1  
     7   27    7 1  
     8   27    8 1  
     9   27    9 1  
    10   33   10 1  
    11   11   26 1  
    12   16   11 ar 
    13   12   11 ar 
    14   13   12 ar 
    15   13   29 1  
    16   14   13 ar 
    17   30   14 1  
    18   14   15 ar 
    19   15   17 ar 
    20   15   16 ar 
    21   16   20 ar 
    22   20   36 1  
    23   20   19 ar 
    24   18   19 ar 
    25   18   24 ar 
    26   17   18 ar 
    27   17   21 ar 
    28   21   22 ar 
    29   22   23 ar 
    30   23   33 1  
    31   24   23 ar 
    32   24   28 1  
    33   28   27 1  
    34   36   34 2  
    35   36   35 2  
    36   30   25 1  
    37   25   29 1  
    38   26   32 2  
    39   26   31 2  
@<TRIPOS>SUBSTRUCTURE
     1 SUB1        1 GROUP

