### 
### Created by X-TOOL on Mon Oct 24 21:59:21 2005
### 

@<TRIPOS>MOLECULE
1sqn_ligand
   50    53     1     0     0
SMALL
GAST_HUCK


@<TRIPOS>ATOM
      1 O22        -4.1220   -1.1470   30.7680 O.2       1 SUB1       -0.392
      2 C21        -3.7310   -0.3340   29.9590 C.2       1 SUB1        0.105
      3 C20        -4.4900    0.9880   29.7420 C.3       1 SUB1        0.021
      4 C19        -2.5860   -0.6780   29.1600 C.3       1 SUB1        0.024
      5 C17        -2.1910    0.2160   28.1060 C.3       1 SUB1       -0.022
      6 C15        -0.8560   -0.1210   27.4590 C.3       1 SUB1       -0.048
      7 C14        -2.9580    1.3330   27.6770 C.3       1 SUB1       -0.031
      8 C18        -4.3850    1.2920   28.2630 C.3       1 SUB1       -0.034
      9 C8         -2.8080    1.6270   26.2540 C.3       1 SUB1       -0.034
     10 C3         -1.6160    1.3810   25.5500 C.3       1 SUB1       -0.034
     11 C9         -0.9620    0.0700   25.9880 C.3       1 SUB1       -0.049
     12 C13        -3.6500    2.8190   25.7550 C.3       1 SUB1       -0.049
     13 C6         -3.4930    3.0750   24.1940 C.3       1 SUB1       -0.044
     14 C2         -2.1050    2.9940   23.6570 C.3       1 SUB1        0.011
     15 C1         -1.4440    1.7140   24.1630 C.3       1 SUB1       -0.029
     16 C7         -1.4140    4.2380   24.2320 C.3       1 SUB1       -0.056
     17 C5         -1.8860    2.9150   22.1190 C.3       1 SUB1        0.132
     18 O12        -1.9890    4.1550   21.4200 O.3       1 SUB1       -0.376
     19 C10        -0.4500    2.3470   22.0170 C.3       1 SUB1       -0.012
     20 C4         -0.2250    1.5110   23.2800 C.3       1 SUB1       -0.046
     21 C11        -2.8680    2.0190   21.4830 C.1       1 SUB1       -0.070
     22 C16        -3.7620    1.2630   20.9700 C.1       1 SUB1       -0.116
     23 H31        -4.0293    1.7944   30.3315 H         1 SUB1        0.049
     24 H32        -5.5443    0.8759   30.0351 H         1 SUB1        0.049
     25 H41        -2.7946   -1.6537   28.6969 H         1 SUB1        0.050
     26 H42        -1.7295   -0.7722   29.8437 H         1 SUB1        0.050
     27 H51        -2.7236   -0.4058   27.3714 H         1 SUB1        0.033
     28 H61        -0.5960   -1.1676   27.6760 H         1 SUB1        0.027
     29 H62        -0.0752    0.5417   27.8604 H         1 SUB1        0.027
     30 H71        -2.4939    2.2001   28.1697 H         1 SUB1        0.031
     31 H81        -4.8482    2.2743   28.0883 H         1 SUB1        0.029
     32 H82        -4.9488    0.5190   27.7203 H         1 SUB1        0.029
     33 H91        -3.4038    0.7944   25.8519 H         1 SUB1        0.031
     34 H101       -0.9546    2.1316   26.0073 H         1 SUB1        0.031
     35 H111       -1.5556   -0.7605   25.5783 H         1 SUB1        0.027
     36 H112        0.0534    0.0381   25.5661 H         1 SUB1        0.027
     37 H121       -3.3313    3.7239   26.2931 H         1 SUB1        0.027
     38 H122       -4.7090    2.6167   25.9729 H         1 SUB1        0.027
     39 H131       -3.8800    4.0815   23.9770 H         1 SUB1        0.027
     40 H132       -4.1024    2.3263   23.6668 H         1 SUB1        0.027
     41 H151       -2.1035    0.9380   23.7472 H         1 SUB1        0.031
     42 H161       -1.5781    4.2791   25.3189 H         1 SUB1        0.024
     43 H162       -1.8339    5.1403   23.7634 H         1 SUB1        0.024
     44 H163       -0.3347    4.1862   24.0259 H         1 SUB1        0.024
     45 H181       -1.8412    4.0080   20.4931 H         1 SUB1        0.211
     46 H191        0.2811    3.1674   21.9687 H         1 SUB1        0.030
     47 H192       -0.3531    1.7162   21.1211 H         1 SUB1        0.030
     48 H201       -0.1206    0.4480   23.0170 H         1 SUB1        0.027
     49 H202        0.6817    1.8503   23.8022 H         1 SUB1        0.027
     50 H221       -4.5006    0.6384   20.5462 H         1 SUB1        0.123
@<TRIPOS>BOND
     1    1    2 2  
     2    2    3 1  
     3    2    4 1  
     4    3    8 1  
     5    4    5 1  
     6    5    6 1  
     7    5    7 1  
     8    6   11 1  
     9    7    8 1  
    10    7    9 1  
    11    9   10 1  
    12    9   12 1  
    13   10   11 1  
    14   10   15 1  
    15   12   13 1  
    16   13   14 1  
    17   14   15 1  
    18   14   16 1  
    19   14   17 1  
    20   15   20 1  
    21   17   18 1  
    22   17   19 1  
    23   17   21 1  
    24   19   20 1  
    25   21   22 3  
    26    3   23 1  
    27    3   24 1  
    28    4   25 1  
    29    4   26 1  
    30    5   27 1  
    31    6   28 1  
    32    6   29 1  
    33    7   30 1  
    34    8   31 1  
    35    8   32 1  
    36    9   33 1  
    37   10   34 1  
    38   11   35 1  
    39   11   36 1  
    40   12   37 1  
    41   12   38 1  
    42   13   39 1  
    43   13   40 1  
    44   15   41 1  
    45   16   42 1  
    46   16   43 1  
    47   16   44 1  
    48   18   45 1  
    49   19   46 1  
    50   19   47 1  
    51   20   48 1  
    52   20   49 1  
    53   22   50 1  
@<TRIPOS>SUBSTRUCTURE
     1 SUB1        1 GROUP

