1sqn_ligand
  -I-interpret- 

 50 53  0  0  0  0  0  0  0  0999 V2000
   -4.1220   -1.1470   30.7680 O   0  0  0  0  0
   -3.7310   -0.3340   29.9590 C   0  0  0  0  0
   -4.4900    0.9880   29.7420 C   0  0  0  0  0
   -2.5860   -0.6780   29.1600 C   0  0  0  0  0
   -2.1910    0.2160   28.1060 C   0  0  0  0  0
   -0.8560   -0.1210   27.4590 C   0  0  0  0  0
   -2.9580    1.3330   27.6770 C   0  0  0  0  0
   -4.3850    1.2920   28.2630 C   0  0  0  0  0
   -2.8080    1.6270   26.2540 C   0  0  0  0  0
   -1.6160    1.3810   25.5500 C   0  0  0  0  0
   -0.9620    0.0700   25.9880 C   0  0  0  0  0
   -3.6500    2.8190   25.7550 C   0  0  0  0  0
   -3.4930    3.0750   24.1940 C   0  0  0  0  0
   -2.1050    2.9940   23.6570 C   0  0  0  0  0
   -1.4440    1.7140   24.1630 C   0  0  0  0  0
   -1.4140    4.2380   24.2320 C   0  0  0  0  0
   -1.8860    2.9150   22.1190 C   0  0  0  0  0
   -1.9890    4.1550   21.4200 O   0  0  0  0  0
   -0.4500    2.3470   22.0170 C   0  0  0  0  0
   -0.2250    1.5110   23.2800 C   0  0  0  0  0
   -2.8680    2.0190   21.4830 C   0  0  0  0  0
   -3.7620    1.2630   20.9700 C   0  0  0  0  0
   -4.0293    1.7944   30.3315 H   0  0  0  0  0
   -5.5443    0.8759   30.0351 H   0  0  0  0  0
   -2.7946   -1.6537   28.6969 H   0  0  0  0  0
   -1.7295   -0.7722   29.8437 H   0  0  0  0  0
   -2.7236   -0.4058   27.3714 H   0  0  0  0  0
   -0.5960   -1.1676   27.6760 H   0  0  0  0  0
   -0.0752    0.5417   27.8604 H   0  0  0  0  0
   -2.4939    2.2001   28.1697 H   0  0  0  0  0
   -4.8482    2.2743   28.0883 H   0  0  0  0  0
   -4.9488    0.5190   27.7203 H   0  0  0  0  0
   -3.4038    0.7944   25.8519 H   0  0  0  0  0
   -0.9546    2.1316   26.0073 H   0  0  0  0  0
   -1.5556   -0.7605   25.5783 H   0  0  0  0  0
    0.0534    0.0381   25.5661 H   0  0  0  0  0
   -3.3313    3.7239   26.2931 H   0  0  0  0  0
   -4.7090    2.6167   25.9729 H   0  0  0  0  0
   -3.8800    4.0815   23.9770 H   0  0  0  0  0
   -4.1024    2.3263   23.6668 H   0  0  0  0  0
   -2.1035    0.9380   23.7472 H   0  0  0  0  0
   -1.5781    4.2791   25.3189 H   0  0  0  0  0
   -1.8339    5.1403   23.7634 H   0  0  0  0  0
   -0.3347    4.1862   24.0259 H   0  0  0  0  0
   -1.8412    4.0080   20.4931 H   0  0  0  0  0
    0.2811    3.1674   21.9687 H   0  0  0  0  0
   -0.3531    1.7162   21.1211 H   0  0  0  0  0
   -0.1206    0.4480   23.0170 H   0  0  0  0  0
    0.6817    1.8503   23.8022 H   0  0  0  0  0
   -4.5006    0.6384   20.5462 H   0  0  0  0  0
  1  2  2  0  0  0
  2  3  1  0  0  0
  2  4  1  0  0  0
  3  8  1  0  0  0
  4  5  1  0  0  0
  5  6  1  0  0  0
  5  7  1  0  0  0
  6 11  1  0  0  0
  7  8  1  0  0  0
  7  9  1  0  0  0
  9 10  1  0  0  0
  9 12  1  0  0  0
 10 11  1  0  0  0
 10 15  1  0  0  0
 12 13  1  0  0  0
 13 14  1  0  0  0
 14 15  1  0  0  0
 14 16  1  0  0  0
 14 17  1  0  0  0
 15 20  1  0  0  0
 17 18  1  0  0  0
 17 19  1  0  0  0
 17 21  1  0  0  0
 19 20  1  0  0  0
 21 22  3  0  0  0
  3 23  1  0  0  0
  3 24  1  0  0  0
  4 25  1  0  0  0
  4 26  1  0  0  0
  5 27  1  0  0  0
  6 28  1  0  0  0
  6 29  1  0  0  0
  7 30  1  0  0  0
  8 31  1  0  0  0
  8 32  1  0  0  0
  9 33  1  0  0  0
 10 34  1  0  0  0
 11 35  1  0  0  0
 11 36  1  0  0  0
 12 37  1  0  0  0
 12 38  1  0  0  0
 13 39  1  0  0  0
 13 40  1  0  0  0
 15 41  1  0  0  0
 16 42  1  0  0  0
 16 43  1  0  0  0
 16 44  1  0  0  0
 18 45  1  0  0  0
 19 46  1  0  0  0
 19 47  1  0  0  0
 20 48  1  0  0  0
 20 49  1  0  0  0
 22 50  1  0  0  0
M  END
$$$$
