### 
### Created by X-TOOL on Mon Oct 24 22:01:12 2005
### 

@<TRIPOS>MOLECULE
1o3h_ligand
   36    38     1     0     0
SMALL
GAST_HUCK


@<TRIPOS>ATOM
      1 C1         43.9920   -3.0850   26.0230 C.ar      1 SUB1        0.169
      2 C2         44.3040   -1.7060   26.1130 C.ar      1 SUB1       -0.022
      3 C3         44.1810   -1.0010   27.3120 C.ar      1 SUB1       -0.039
      4 C4         43.7530   -1.6780   28.4200 C.ar      1 SUB1        0.063
      5 C5         43.4410   -2.9980   28.3750 C.ar      1 SUB1       -0.022
      6 C6         43.5400   -3.7500   27.1920 C.ar      1 SUB1       -0.021
      7 C7         44.1550   -3.7530   24.7840 C.cat     1 SUB1        0.309
      8 N1         43.8530   -5.0280   24.6700 N.pl3     1 SUB1       -0.201
      9 N2         44.6180   -3.0670   23.7560 N.pl3     1 SUB1       -0.201
     10 N3         43.5800   -1.2370   29.6300 N.pl3     1 SUB1       -0.276
     11 CN4        43.0550   -3.3590   29.6590 C.2       1 SUB1       -0.058
     12 C8         43.1700   -2.1950   30.4230 C.2       1 SUB1        0.060
     13 C1'        42.9440   -2.0180   31.8010 C.ar      1 SUB1        0.032
     14 C2'        42.5940   -3.1000   32.6100 C.ar      1 SUB1       -0.056
     15 C3'        42.3750   -2.9290   33.9790 C.ar      1 SUB1       -0.054
     16 C31'       41.9910   -4.1270   34.8490 C.3       1 SUB1       -0.036
     17 C4'        42.5070   -1.6770   34.5530 C.ar      1 SUB1       -0.059
     18 C5'        42.8540   -0.6020   33.7630 C.ar      1 SUB1        0.036
     19 C6'        43.0760   -0.7450   32.3950 C.ar      1 SUB1        0.105
     20 O6'        43.3980    0.3720   31.6390 O.3       1 SUB1       -0.332
     21 BR5'       43.0890    1.1080   34.6370 Br        1 SUB1       -0.060
     22 H21        44.6490   -1.1640   25.2540 H         1 SUB1        0.058
     23 H31        44.4190    0.0500   27.3720 H         1 SUB1        0.054
     24 H61        43.2800   -4.7980   27.1860 H         1 SUB1        0.058
     25 H81        43.5340   -5.5230   25.4920 H         1 SUB1        0.192
     26 H82        43.9220   -5.5750   23.8430 H         1 SUB1        0.192
     27 H91        44.8350   -2.0870   23.8550 H         1 SUB1        0.192
     28 H92        44.7960   -3.4690   22.8640 H         1 SUB1        0.192
     29 H101       43.7310   -0.3210   29.9540 H         1 SUB1        0.223
     30 H111       42.7390   -4.3480   29.9990 H         1 SUB1        0.030
     31 H141       42.4910   -4.0860   32.1840 H         1 SUB1        0.055
     32 H161       41.1280   -3.8760   35.4460 H         1 SUB1        0.037
     33 H162       41.7650   -4.9710   34.2160 H         1 SUB1        0.037
     34 H163       42.8200   -4.3730   35.4960 H         1 SUB1        0.037
     35 H171       42.3380   -1.5340   35.6110 H         1 SUB1        0.056
     36 H201       43.5182    0.1154   30.7323 H         1 SUB1        0.250
@<TRIPOS>BOND
     1    1    2 ar 
     2    1    6 ar 
     3    1    7 1  
     4    2    3 ar 
     5    2   22 1  
     6    3    4 ar 
     7    3   23 1  
     8    4    5 ar 
     9    4   10 1  
    10    5    6 ar 
    11    5   11 1  
    12    6   24 1  
    13    7    8 1  
    14    7    9 1  
    15    8   25 1  
    16    8   26 1  
    17    9   27 1  
    18    9   28 1  
    19   10   12 1  
    20   10   29 1  
    21   11   12 2  
    22   11   30 1  
    23   12   13 1  
    24   13   14 ar 
    25   13   19 ar 
    26   14   15 ar 
    27   14   31 1  
    28   15   16 1  
    29   15   17 ar 
    30   16   32 1  
    31   16   33 1  
    32   16   34 1  
    33   17   18 ar 
    34   17   35 1  
    35   18   19 ar 
    36   18   21 1  
    37   19   20 1  
    38   20   36 1  
@<TRIPOS>SUBSTRUCTURE
     1 SUB1        1 GROUP

