1o3h_ligand
  -I-interpret- 

 36 38  0  0  0  0  0  0  0  0999 V2000
   43.9920   -3.0850   26.0230 C   0  0  0  0  0
   44.3040   -1.7060   26.1130 C   0  0  0  0  0
   44.1810   -1.0010   27.3120 C   0  0  0  0  0
   43.7530   -1.6780   28.4200 C   0  0  0  0  0
   43.4410   -2.9980   28.3750 C   0  0  0  0  0
   43.5400   -3.7500   27.1920 C   0  0  0  0  0
   44.1550   -3.7530   24.7840 C   0  3  0  0  0
   43.8530   -5.0280   24.6700 N   0  0  0  0  0
   44.6180   -3.0670   23.7560 N   0  0  0  0  0
   43.5800   -1.2370   29.6300 N   0  0  0  0  0
   43.0550   -3.3590   29.6590 C   0  0  0  0  0
   43.1700   -2.1950   30.4230 C   0  0  0  0  0
   42.9440   -2.0180   31.8010 C   0  0  0  0  0
   42.5940   -3.1000   32.6100 C   0  0  0  0  0
   42.3750   -2.9290   33.9790 C   0  0  0  0  0
   41.9910   -4.1270   34.8490 C   0  0  0  0  0
   42.5070   -1.6770   34.5530 C   0  0  0  0  0
   42.8540   -0.6020   33.7630 C   0  0  0  0  0
   43.0760   -0.7450   32.3950 C   0  0  0  0  0
   43.3980    0.3720   31.6390 O   0  0  0  0  0
   43.0890    1.1080   34.6370 Br  0  0  0  0  0
   44.6490   -1.1640   25.2540 H   0  0  0  0  0
   44.4190    0.0500   27.3720 H   0  0  0  0  0
   43.2800   -4.7980   27.1860 H   0  0  0  0  0
   43.5340   -5.5230   25.4920 H   0  0  0  0  0
   43.9220   -5.5750   23.8430 H   0  0  0  0  0
   44.8350   -2.0870   23.8550 H   0  0  0  0  0
   44.7960   -3.4690   22.8640 H   0  0  0  0  0
   43.7310   -0.3210   29.9540 H   0  0  0  0  0
   42.7390   -4.3480   29.9990 H   0  0  0  0  0
   42.4910   -4.0860   32.1840 H   0  0  0  0  0
   41.1280   -3.8760   35.4460 H   0  0  0  0  0
   41.7650   -4.9710   34.2160 H   0  0  0  0  0
   42.8200   -4.3730   35.4960 H   0  0  0  0  0
   42.3380   -1.5340   35.6110 H   0  0  0  0  0
   43.5182    0.1154   30.7323 H   0  0  0  0  0
  1  2  4  0  0  0
  1  6  4  0  0  0
  1  7  1  0  0  0
  2  3  4  0  0  0
  2 22  1  0  0  0
  3  4  4  0  0  0
  3 23  1  0  0  0
  4  5  4  0  0  0
  4 10  1  0  0  0
  5  6  4  0  0  0
  5 11  1  0  0  0
  6 24  1  0  0  0
  7  8  1  0  0  0
  7  9  1  0  0  0
  8 25  1  0  0  0
  8 26  1  0  0  0
  9 27  1  0  0  0
  9 28  1  0  0  0
 10 12  1  0  0  0
 10 29  1  0  0  0
 11 12  2  0  0  0
 11 30  1  0  0  0
 12 13  1  0  0  0
 13 14  4  0  0  0
 13 19  4  0  0  0
 14 15  4  0  0  0
 14 31  1  0  0  0
 15 16  1  0  0  0
 15 17  4  0  0  0
 16 32  1  0  0  0
 16 33  1  0  0  0
 16 34  1  0  0  0
 17 18  4  0  0  0
 17 35  1  0  0  0
 18 19  4  0  0  0
 18 21  1  0  0  0
 19 20  1  0  0  0
 20 36  1  0  0  0
M  END
$$$$
