### 
### Created by X-TOOL on Mon Oct 24 22:36:42 2005
### 

@<TRIPOS>MOLECULE
1apb_ligand
   23    23     1     0     0
SMALL
GAST_HUCK


@<TRIPOS>ATOM
      1 C1         14.2590   56.4290   55.0020 C.3       1 SUB1        0.185
      2 C2         12.8940   56.9600   54.6440 C.3       1 SUB1        0.134
      3 C3         12.4620   56.2850   53.3440 C.3       1 SUB1        0.114
      4 C4         13.4770   56.4860   52.2310 C.3       1 SUB1        0.109
      5 C5         14.8130   55.9620   52.7210 C.3       1 SUB1        0.087
      6 C6         15.8950   56.1350   51.6700 C.3       1 SUB1       -0.036
      7 O1         14.8690   57.0610   56.1230 O.3       1 SUB1       -0.365
      8 O2         11.8910   56.6950   55.6320 O.3       1 SUB1       -0.384
      9 O3         11.1250   56.6440   52.9780 O.3       1 SUB1       -0.386
     10 O4         13.4710   57.8220   51.7090 O.3       1 SUB1       -0.387
     11 O5         15.1850   56.6440   53.9280 O.3       1 SUB1       -0.343
     12 H11        14.1609   55.3522   55.2039 H         1 SUB1        0.094
     13 H21        12.9652   58.0478   54.4968 H         1 SUB1        0.067
     14 H31        12.4429   55.2039   53.5462 H         1 SUB1        0.065
     15 H41        13.1752   55.8399   51.3935 H         1 SUB1        0.065
     16 H51        14.7085   54.8889   52.9388 H         1 SUB1        0.062
     17 H61        16.8480   55.7456   52.0574 H         1 SUB1        0.025
     18 H62        16.0057   57.2028   51.4300 H         1 SUB1        0.025
     19 H63        15.6153   55.5819   50.7612 H         1 SUB1        0.025
     20 H71        15.7120   56.6571   56.2929 H         1 SUB1        0.213
     21 H81        11.0587   57.0468   55.3390 H         1 SUB1        0.210
     22 H91        10.5451   56.4946   53.7154 H         1 SUB1        0.210
     23 H101       12.5909   58.0488   51.4324 H         1 SUB1        0.210
@<TRIPOS>BOND
     1    1    2 1  
     2    1    7 1  
     3    1   11 1  
     4    2    3 1  
     5    2    8 1  
     6    3    4 1  
     7    3    9 1  
     8    4    5 1  
     9    4   10 1  
    10    5    6 1  
    11    5   11 1  
    12    1   12 1  
    13    2   13 1  
    14    3   14 1  
    15    4   15 1  
    16    5   16 1  
    17    6   17 1  
    18    6   18 1  
    19    6   19 1  
    20    7   20 1  
    21    8   21 1  
    22    9   22 1  
    23   10   23 1  
@<TRIPOS>SUBSTRUCTURE
     1 SUB1        1 GROUP

