1apb_ligand
  -I-interpret- 

 23 23  0  0  0  0  0  0  0  0999 V2000
   14.2590   56.4290   55.0020 C   0  0  0  0  0
   12.8940   56.9600   54.6440 C   0  0  0  0  0
   12.4620   56.2850   53.3440 C   0  0  0  0  0
   13.4770   56.4860   52.2310 C   0  0  0  0  0
   14.8130   55.9620   52.7210 C   0  0  0  0  0
   15.8950   56.1350   51.6700 C   0  0  0  0  0
   14.8690   57.0610   56.1230 O   0  0  0  0  0
   11.8910   56.6950   55.6320 O   0  0  0  0  0
   11.1250   56.6440   52.9780 O   0  0  0  0  0
   13.4710   57.8220   51.7090 O   0  0  0  0  0
   15.1850   56.6440   53.9280 O   0  0  0  0  0
   14.1609   55.3522   55.2039 H   0  0  0  0  0
   12.9652   58.0478   54.4968 H   0  0  0  0  0
   12.4429   55.2039   53.5462 H   0  0  0  0  0
   13.1752   55.8399   51.3935 H   0  0  0  0  0
   14.7085   54.8889   52.9388 H   0  0  0  0  0
   16.8480   55.7456   52.0574 H   0  0  0  0  0
   16.0057   57.2028   51.4300 H   0  0  0  0  0
   15.6153   55.5819   50.7612 H   0  0  0  0  0
   15.7120   56.6571   56.2929 H   0  0  0  0  0
   11.0587   57.0468   55.3390 H   0  0  0  0  0
   10.5451   56.4946   53.7154 H   0  0  0  0  0
   12.5909   58.0488   51.4324 H   0  0  0  0  0
  1  2  1  0  0  0
  1  7  1  0  0  0
  1 11  1  0  0  0
  2  3  1  0  0  0
  2  8  1  0  0  0
  3  4  1  0  0  0
  3  9  1  0  0  0
  4  5  1  0  0  0
  4 10  1  0  0  0
  5  6  1  0  0  0
  5 11  1  0  0  0
  1 12  1  0  0  0
  2 13  1  0  0  0
  3 14  1  0  0  0
  4 15  1  0  0  0
  5 16  1  0  0  0
  6 17  1  0  0  0
  6 18  1  0  0  0
  6 19  1  0  0  0
  7 20  1  0  0  0
  8 21  1  0  0  0
  9 22  1  0  0  0
 10 23  1  0  0  0
M  END
$$$$
