1af2_ligand
  -I-interpret- 

 29 30  0  0  0  0  0  0  0  0999 V2000
   33.2440   51.8150   10.9650 O   0  0  0  0  0
   34.0900   52.0600   12.1040 C   0  0  0  0  0
   35.4680   51.6920   11.7190 C   0  0  0  0  0
   35.6230   50.3370   11.3450 O   0  0  0  0  0
   36.0780   52.5880   10.6320 C   0  0  0  0  0
   37.4630   52.7290   10.8190 O   0  0  0  0  0
   35.8650   51.8640    9.3820 C   0  0  0  0  0
   36.9600   52.0210    8.4420 O   0  0  0  0  0
   35.8430   50.4710    9.9260 C   0  0  0  0  0
   35.2970   49.0220    9.4500 N   0  0  0  0  0
   36.0660   48.3560    8.5220 C   0  0  0  0  0
   37.2830   48.4750    8.3920 O   0  0  0  0  0
   35.3750   47.5660    7.6410 N   0  0  0  0  0
   34.0150   47.4990    7.4960 C   0  0  0  0  0
   33.5860   46.9810    6.5050 O   0  0  0  0  0
   33.2540   48.1100    8.5500 C   0  0  0  0  0
   33.8690   48.8520    9.4840 C   0  0  0  0  0
   33.2897   50.8957   10.7299 H   0  0  0  0  0
   33.7611   51.4462   12.9555 H   0  0  0  0  0
   34.0486   53.1237   12.3811 H   0  0  0  0  0
   36.0764   51.8388   12.6236 H   0  0  0  0  0
   35.5912   53.5743   10.6160 H   0  0  0  0  0
   37.8185   53.2861   10.1365 H   0  0  0  0  0
   34.9171   52.1443    8.8994 H   0  0  0  0  0
   37.7612   51.6930    8.8332 H   0  0  0  0  0
   36.9229   50.2905    9.8198 H   0  0  0  0  0
   35.9197   46.9783    7.0427 H   0  0  0  0  0
   32.1747   47.9707    8.5913 H   0  0  0  0  0
   33.2847   49.3272   10.2706 H   0  0  0  0  0
  1  2  1  0  0  0
  2  3  1  0  0  0
  3  4  1  0  0  0
  3  5  1  0  0  0
  4  9  1  0  0  0
  5  6  1  0  0  0
  5  7  1  0  0  0
  7  8  1  0  0  0
  7  9  1  0  0  0
  9 10  1  0  0  0
 10 11  1  0  0  0
 10 17  1  0  0  0
 11 12  2  0  0  0
 11 13  1  0  0  0
 13 14  1  0  0  0
 14 15  2  0  0  0
 14 16  1  0  0  0
 16 17  2  0  0  0
  1 18  1  0  0  0
  2 19  1  0  0  0
  2 20  1  0  0  0
  3 21  1  0  0  0
  5 22  1  0  0  0
  6 23  1  0  0  0
  7 24  1  0  0  0
  8 25  1  0  0  0
  9 26  1  0  0  0
 13 27  1  0  0  0
 16 28  1  0  0  0
 17 29  1  0  0  0
M  END
$$$$
