1jq9_ligand
  -I-interpret- 

 96 97  0  0  0  0  0  0  0  0999 V2000
    8.5750   15.7090   38.3060 N   0  3  0  0  0
    9.6020   15.8610   37.2350 C   0  0  0  0  0
    9.8300   17.3450   36.9780 C   0  0  0  0  0
    9.8030   17.7720   35.8240 O   0  0  0  0  0
    9.1170   15.2150   35.9330 C   0  0  0  0  0
    8.0920   14.1340   36.1310 C   0  0  0  0  0
    8.4280   12.9400   36.7600 C   0  0  0  0  0
    6.7800   14.3170   35.7000 C   0  0  0  0  0
    7.4730   11.9440   36.9590 C   0  0  0  0  0
    5.8180   13.3280   35.8960 C   0  0  0  0  0
    6.1640   12.1390   36.5260 C   0  0  0  0  0
   10.1140   17.7640   38.5350 N   0  0  0  0  0
   10.3180   19.2050   38.4100 C   0  0  0  0  0
   10.7950   20.0580   39.5860 C   0  0  0  0  0
   10.3390   21.1900   39.7310 O   0  0  0  0  0
    9.0340   19.8430   37.8730 C   0  0  0  0  0
    7.6400   19.5000   38.4290 C   0  0  0  0  0
    7.2160   18.1030   38.0040 C   0  0  0  0  0
    7.6400   19.6160   39.9250 C   0  0  0  0  0
   11.7100   19.5640   40.4120 N   0  0  0  0  0
   12.1740   20.3780   41.5350 C   0  0  0  0  0
   13.6800   20.6050   41.5720 C   0  0  0  0  0
   14.4560   19.6990   41.2890 O   0  0  0  0  0
   11.7240   19.7650   42.8580 C   0  0  0  0  0
   12.1760   20.5610   43.9390 O   0  0  0  0  0
   14.0810   21.8210   41.9330 N   0  0  0  0  0
   15.4940   22.1830   42.0050 C   0  0  0  0  0
   15.9400   22.1160   43.4620 C   0  0  0  0  0
   15.3160   21.4330   44.2750 O   0  0  0  0  0
   15.6850   23.6030   41.4590 C   0  0  0  0  0
   17.0160   23.8740   40.7800 C   0  0  0  0  0
   18.0890   24.4260   41.4820 C   0  0  0  0  0
   17.1870   23.6100   39.4210 C   0  0  0  0  0
   19.2980   24.7160   40.8420 C   0  0  0  0  0
   18.3870   23.8930   38.7750 C   0  0  0  0  0
   19.4360   24.4480   39.4880 C   0  0  0  0  0
   20.6120   24.7520   38.8410 O   0  0  0  0  0
   17.0230   22.8160   43.7850 N   0  0  0  0  0
   17.4770   22.8520   45.1510 C   0  0  0  0  0
   18.0450   21.5090   45.6040 C   0  0  0  0  0
   17.9440   21.1520   46.7730 O   0  0  0  0  0
   16.3280   23.2500   46.0730 C   0  0  0  0  0
   16.6650   24.4650   46.8830 C   0  0  0  0  0
   18.0620   24.4670   47.2200 C   0  0  0  0  0
   18.8530   25.1120   46.5700 C   0  0  0  0  0
   19.9650   25.8140   47.2620 N   0  3  0  0  0
   18.9400   20.9320   44.9460 O   0  5  0  0  0
    8.3005   16.6196   38.6399 H   0  0  0  0  0
   10.5412   15.3867   37.5558 H   0  0  0  0  0
    9.9859   14.7777   35.4194 H   0  0  0  0  0
    8.6746   15.9996   35.3016 H   0  0  0  0  0
    9.4451   12.7818   37.0998 H   0  0  0  0  0
    6.5036   15.2412   35.2055 H   0  0  0  0  0
    7.7493   11.0182   37.4506 H   0  0  0  0  0
    4.8005   13.4862   35.5572 H   0  0  0  0  0
    5.4187   11.3670   36.6797 H   0  0  0  0  0
   10.1407   17.1881   39.3521 H   0  0  0  0  0
   11.0959   19.3149   37.6401 H   0  0  0  0  0
    9.0010   19.6043   36.7997 H   0  0  0  0  0
    9.1555   20.9284   38.0036 H   0  0  0  0  0
    6.9157   20.2210   38.0223 H   0  0  0  0  0
    7.1724   18.0512   36.9061 H   0  0  0  0  0
    6.2234   17.8782   38.4214 H   0  0  0  0  0
    7.9454   17.3690   38.3771 H   0  0  0  0  0
    8.3716   18.9114   40.3474 H   0  0  0  0  0
    6.6376   19.3791   40.3112 H   0  0  0  0  0
    7.9108   20.6424   40.2132 H   0  0  0  0  0
   12.0778   18.6454   40.2677 H   0  0  0  0  0
   11.6977   21.3646   41.4364 H   0  0  0  0  0
   12.1428   18.7521   42.9514 H   0  0  0  0  0
   10.6256   19.7110   42.8796 H   0  0  0  0  0
   13.1247   20.6071   43.9218 H   0  0  0  0  0
   13.3928   22.5093   42.1624 H   0  0  0  0  0
   16.0884   21.4780   41.4052 H   0  0  0  0  0
   15.5858   24.3047   42.3002 H   0  0  0  0  0
   14.8869   23.7936   40.7264 H   0  0  0  0  0
   17.9832   24.6332   42.5407 H   0  0  0  0  0
   16.3693   23.1760   38.8570 H   0  0  0  0  0
   20.1214   25.1471   41.3999 H   0  0  0  0  0
   18.4997   23.6798   37.7182 H   0  0  0  0  0
   20.5411   24.5070   37.9259 H   0  0  0  0  0
   17.5226   23.3178   43.0789 H   0  0  0  0  0
   18.2719   23.6083   45.2291 H   0  0  0  0  0
   16.1124   22.4147   46.7555 H   0  0  0  0  0
   15.4382   23.4636   45.4626 H   0  0  0  0  0
   16.0686   24.4620   47.8073 H   0  0  0  0  0
   16.4312   25.3672   46.2987 H   0  0  0  0  0
   18.3977   23.4205   47.1750 H   0  0  0  0  0
   18.1350   24.8312   48.2554 H   0  0  0  0  0
   18.2760   25.8784   46.0317 H   0  0  0  0  0
   19.3109   24.4220   45.8460 H   0  0  0  0  0
   19.5860   26.4825   47.9143 H   0  0  0  0  0
   20.5344   26.2934   46.5823 H   0  0  0  0  0
   20.5289   25.1423   47.7588 H   0  0  0  0  0
    8.9609   15.1740   39.0682 H   0  0  0  0  0
    7.7695   15.2308   37.9338 H   0  0  0  0  0
  3  2  1  0  0  0
  2  5  1  0  0  0
  2  1  1  0  0  0
  5  6  1  0  0  0
  6  8  4  0  0  0
  6  7  4  0  0  0
  7  9  4  0  0  0
  9 11  4  0  0  0
 10 11  4  0  0  0
  8 10  4  0  0  0
  3  4  2  0  0  0
 14 13  1  0  0  0
 13 16  1  0  0  0
 13 12  1  0  0  0
 16 17  1  0  0  0
 17 19  1  0  0  0
 17 18  1  0  0  0
 14 15  2  0  0  0
 22 21  1  0  0  0
 21 24  1  0  0  0
 21 20  1  0  0  0
 24 25  1  0  0  0
 22 23  2  0  0  0
 28 27  1  0  0  0
 27 30  1  0  0  0
 27 26  1  0  0  0
 30 31  1  0  0  0
 31 33  4  0  0  0
 31 32  4  0  0  0
 32 34  4  0  0  0
 34 36  4  0  0  0
 36 37  1  0  0  0
 35 36  4  0  0  0
 33 35  4  0  0  0
 28 29  2  0  0  0
 39 40  1  0  0  0
 39 42  1  0  0  0
 38 39  1  0  0  0
 42 43  1  0  0  0
 43 44  1  0  0  0
 44 45  1  0  0  0
 45 46  1  0  0  0
 40 47  1  0  0  0
 40 41  2  0  0  0
 12  3  1  0  0  0
 20 14  1  0  0  0
 26 22  1  0  0  0
 28 38  1  0  0  0
  1 48  1  0  0  0
  2 49  1  0  0  0
  5 50  1  0  0  0
  5 51  1  0  0  0
  7 52  1  0  0  0
  8 53  1  0  0  0
  9 54  1  0  0  0
 10 55  1  0  0  0
 11 56  1  0  0  0
 12 57  1  0  0  0
 13 58  1  0  0  0
 16 59  1  0  0  0
 16 60  1  0  0  0
 17 61  1  0  0  0
 18 62  1  0  0  0
 18 63  1  0  0  0
 18 64  1  0  0  0
 19 65  1  0  0  0
 19 66  1  0  0  0
 19 67  1  0  0  0
 20 68  1  0  0  0
 21 69  1  0  0  0
 24 70  1  0  0  0
 24 71  1  0  0  0
 25 72  1  0  0  0
 26 73  1  0  0  0
 27 74  1  0  0  0
 30 75  1  0  0  0
 30 76  1  0  0  0
 32 77  1  0  0  0
 33 78  1  0  0  0
 34 79  1  0  0  0
 35 80  1  0  0  0
 37 81  1  0  0  0
 38 82  1  0  0  0
 39 83  1  0  0  0
 42 84  1  0  0  0
 42 85  1  0  0  0
 43 86  1  0  0  0
 43 87  1  0  0  0
 44 88  1  0  0  0
 44 89  1  0  0  0
 45 90  1  0  0  0
 45 91  1  0  0  0
 46 92  1  0  0  0
 46 93  1  0  0  0
 46 94  1  0  0  0
  1 95  1  0  0  0
  1 96  1  0  0  0
M  END
$$$$
