### 
### Created by X-TOOL on Mon Oct 24 22:43:46 2005
### 

@<TRIPOS>MOLECULE
1jq9_ligand
   96    97     1     0     0
SMALL
GAST_HUCK


@<TRIPOS>ATOM
      1 N           8.5750   15.7090   38.3060 N.4       1 SUB1        0.239
      2 CA          9.6020   15.8610   37.2350 C.3       1 SUB1        0.074
      3 C           9.8300   17.3450   36.9780 C.2       1 SUB1        0.229
      4 O           9.8030   17.7720   35.8240 O.2       1 SUB1       -0.391
      5 CB          9.1170   15.2150   35.9330 C.3       1 SUB1        0.042
      6 CG          8.0920   14.1340   36.1310 C.ar      1 SUB1       -0.035
      7 CD1         8.4280   12.9400   36.7600 C.ar      1 SUB1       -0.060
      8 CD2         6.7800   14.3170   35.7000 C.ar      1 SUB1       -0.060
      9 CE1         7.4730   11.9440   36.9590 C.ar      1 SUB1       -0.069
     10 CE2         5.8180   13.3280   35.8960 C.ar      1 SUB1       -0.069
     11 CZ          6.1640   12.1390   36.5260 C.ar      1 SUB1       -0.069
     12 N          10.1140   17.7640   38.5350 N.am      1 SUB1       -0.261
     13 CA         10.3180   19.2050   38.4100 C.3       1 SUB1        0.131
     14 C          10.7950   20.0580   39.5860 C.2       1 SUB1        0.204
     15 O          10.3390   21.1900   39.7310 O.2       1 SUB1       -0.394
     16 CB          9.0340   19.8430   37.8730 C.3       1 SUB1       -0.010
     17 CG          7.6400   19.5000   38.4290 C.3       1 SUB1       -0.043
     18 CD1         7.2160   18.1030   38.0040 C.3       1 SUB1       -0.062
     19 CD2         7.6400   19.6160   39.9250 C.3       1 SUB1       -0.062
     20 N          11.7100   19.5640   40.4120 N.am      1 SUB1       -0.262
     21 CA         12.1740   20.3780   41.5350 C.3       1 SUB1        0.154
     22 C          13.6800   20.6050   41.5720 C.2       1 SUB1        0.206
     23 O          14.4560   19.6990   41.2890 O.2       1 SUB1       -0.394
     24 CB         11.7240   19.7650   42.8580 C.3       1 SUB1        0.084
     25 OG         12.1760   20.5610   43.9390 O.3       1 SUB1       -0.390
     26 N          14.0810   21.8210   41.9330 N.am      1 SUB1       -0.262
     27 CA         15.4940   22.1830   42.0050 C.3       1 SUB1        0.139
     28 C          15.9400   22.1160   43.4620 C.2       1 SUB1        0.207
     29 O          15.3160   21.4330   44.2750 O.2       1 SUB1       -0.394
     30 CB         15.6850   23.6030   41.4590 C.3       1 SUB1        0.016
     31 CG         17.0160   23.8740   40.7800 C.ar      1 SUB1       -0.049
     32 CD1        18.0890   24.4260   41.4820 C.ar      1 SUB1       -0.068
     33 CD2        17.1870   23.6100   39.4210 C.ar      1 SUB1       -0.068
     34 CE1        19.2980   24.7160   40.8420 C.ar      1 SUB1       -0.040
     35 CE2        18.3870   23.8930   38.7750 C.ar      1 SUB1       -0.040
     36 CZ         19.4360   24.4480   39.4880 C.ar      1 SUB1        0.080
     37 OH         20.6120   24.7520   38.8410 O.3       1 SUB1       -0.338
     38 N          17.0230   22.8160   43.7850 N.am      1 SUB1       -0.268
     39 CA         17.4770   22.8520   45.1510 C.3       1 SUB1        0.081
     40 C          18.0450   21.5090   45.6040 C.2       1 SUB1        0.053
     41 O          17.9440   21.1520   46.7730 O.co2     1 SUB1       -0.564
     42 CB         16.3280   23.2500   46.0730 C.3       1 SUB1       -0.018
     43 CG         16.6650   24.4650   46.8830 C.3       1 SUB1       -0.043
     44 CD         18.0620   24.4670   47.2200 C.3       1 SUB1       -0.012
     45 CE         18.8530   25.1120   46.5700 C.3       1 SUB1       -0.035
     46 NZ         19.9650   25.8140   47.2620 N.4       1 SUB1        0.219
     47 OXT        18.9400   20.9320   44.9460 O.co2     1 SUB1       -0.564
     48 H11         8.3005   16.6196   38.6399 H         1 SUB1        0.202
     49 H21        10.5412   15.3867   37.5558 H         1 SUB1        0.112
     50 H51         9.9859   14.7777   35.4194 H         1 SUB1        0.051
     51 H52         8.6746   15.9996   35.3016 H         1 SUB1        0.051
     52 H71         9.4451   12.7818   37.0998 H         1 SUB1        0.056
     53 H81         6.5036   15.2412   35.2055 H         1 SUB1        0.056
     54 H91         7.7493   11.0182   37.4506 H         1 SUB1        0.060
     55 H101        4.8005   13.4862   35.5572 H         1 SUB1        0.060
     56 H111        5.4187   11.3670   36.6797 H         1 SUB1        0.056
     57 H121       10.1407   17.1881   39.3521 H         1 SUB1        0.189
     58 H131       11.0959   19.3149   37.6401 H         1 SUB1        0.080
     59 H161        9.0010   19.6043   36.7997 H         1 SUB1        0.032
     60 H162        9.1555   20.9284   38.0036 H         1 SUB1        0.032
     61 H171        6.9157   20.2210   38.0223 H         1 SUB1        0.030
     62 H181        7.1724   18.0512   36.9061 H         1 SUB1        0.023
     63 H182        6.2234   17.8782   38.4214 H         1 SUB1        0.023
     64 H183        7.9454   17.3690   38.3771 H         1 SUB1        0.023
     65 H191        8.3716   18.9114   40.3474 H         1 SUB1        0.023
     66 H192        6.6376   19.3791   40.3112 H         1 SUB1        0.023
     67 H193        7.9108   20.6424   40.2132 H         1 SUB1        0.023
     68 H201       12.0778   18.6454   40.2677 H         1 SUB1        0.188
     69 H211       11.6977   21.3646   41.4364 H         1 SUB1        0.082
     70 H241       12.1428   18.7521   42.9514 H         1 SUB1        0.061
     71 H242       10.6256   19.7110   42.8796 H         1 SUB1        0.061
     72 H251       13.1247   20.6071   43.9218 H         1 SUB1        0.210
     73 H261       13.3928   22.5093   42.1624 H         1 SUB1        0.189
     74 H271       16.0884   21.4780   41.4052 H         1 SUB1        0.082
     75 H301       15.5858   24.3047   42.3002 H         1 SUB1        0.045
     76 H302       14.8869   23.7936   40.7264 H         1 SUB1        0.045
     77 H321       17.9832   24.6332   42.5407 H         1 SUB1        0.053
     78 H331       16.3693   23.1760   38.8570 H         1 SUB1        0.053
     79 H341       20.1214   25.1471   41.3999 H         1 SUB1        0.052
     80 H351       18.4997   23.6798   37.7182 H         1 SUB1        0.052
     81 H371       20.5411   24.5070   37.9259 H         1 SUB1        0.246
     82 H381       17.5226   23.3178   43.0789 H         1 SUB1        0.190
     83 H391       18.2719   23.6083   45.2291 H         1 SUB1        0.078
     84 H421       16.1124   22.4147   46.7555 H         1 SUB1        0.032
     85 H422       15.4382   23.4636   45.4626 H         1 SUB1        0.032
     86 H431       16.0686   24.4620   47.8073 H         1 SUB1        0.027
     87 H432       16.4312   25.3672   46.2987 H         1 SUB1        0.027
     88 H441       18.3977   23.4205   47.1750 H         1 SUB1        0.032
     89 H442       18.1350   24.8312   48.2554 H         1 SUB1        0.032
     90 H451       18.2760   25.8784   46.0317 H         1 SUB1        0.081
     91 H452       19.3109   24.4220   45.8460 H         1 SUB1        0.081
     92 H461       19.5860   26.4825   47.9143 H         1 SUB1        0.199
     93 H462       20.5344   26.2934   46.5823 H         1 SUB1        0.199
     94 H463       20.5289   25.1423   47.7588 H         1 SUB1        0.199
     95 H12         8.9609   15.1740   39.0682 H         1 SUB1        0.202
     96 H13         7.7695   15.2308   37.9338 H         1 SUB1        0.202
@<TRIPOS>BOND
     1    3    2 1  
     2    2    5 1  
     3    2    1 1  
     4    5    6 1  
     5    6    8 ar 
     6    6    7 ar 
     7    7    9 ar 
     8    9   11 ar 
     9   10   11 ar 
    10    8   10 ar 
    11    3    4 2  
    12   14   13 1  
    13   13   16 1  
    14   13   12 1  
    15   16   17 1  
    16   17   19 1  
    17   17   18 1  
    18   14   15 2  
    19   22   21 1  
    20   21   24 1  
    21   21   20 1  
    22   24   25 1  
    23   22   23 2  
    24   28   27 1  
    25   27   30 1  
    26   27   26 1  
    27   30   31 1  
    28   31   33 ar 
    29   31   32 ar 
    30   32   34 ar 
    31   34   36 ar 
    32   36   37 1  
    33   35   36 ar 
    34   33   35 ar 
    35   28   29 2  
    36   39   40 1  
    37   39   42 1  
    38   38   39 1  
    39   42   43 1  
    40   43   44 1  
    41   44   45 1  
    42   45   46 1  
    43   40   47 2  
    44   40   41 2  
    45   12    3 am 
    46   20   14 am 
    47   26   22 am 
    48   28   38 am 
    49    1   48 1  
    50    2   49 1  
    51    5   50 1  
    52    5   51 1  
    53    7   52 1  
    54    8   53 1  
    55    9   54 1  
    56   10   55 1  
    57   11   56 1  
    58   12   57 1  
    59   13   58 1  
    60   16   59 1  
    61   16   60 1  
    62   17   61 1  
    63   18   62 1  
    64   18   63 1  
    65   18   64 1  
    66   19   65 1  
    67   19   66 1  
    68   19   67 1  
    69   20   68 1  
    70   21   69 1  
    71   24   70 1  
    72   24   71 1  
    73   25   72 1  
    74   26   73 1  
    75   27   74 1  
    76   30   75 1  
    77   30   76 1  
    78   32   77 1  
    79   33   78 1  
    80   34   79 1  
    81   35   80 1  
    82   37   81 1  
    83   38   82 1  
    84   39   83 1  
    85   42   84 1  
    86   42   85 1  
    87   43   86 1  
    88   43   87 1  
    89   44   88 1  
    90   44   89 1  
    91   45   90 1  
    92   45   91 1  
    93   46   92 1  
    94   46   93 1  
    95   46   94 1  
    96    1   95 1  
    97    1   96 1  
@<TRIPOS>SUBSTRUCTURE
     1 SUB1        1 GROUP

