### 
### Created by X-TOOL on Mon Oct 24 22:28:19 2005
### 

@<TRIPOS>MOLECULE
1ftm_ligand
   23    23     1     0     0
SMALL
GAST_HUCK


@<TRIPOS>ATOM
      1 N          75.0740   27.4930   42.9170 N.4       1 SUB1        0.239
      2 CA         76.1360   26.4300   42.9670 C.3       1 SUB1        0.016
      3 C          76.4420   26.0550   44.4560 C.2       1 SUB1        0.077
      4 OT1        77.3630   25.2540   44.6680 O.co2     1 SUB1       -0.561
      5 OT2        75.7220   26.5630   45.3460 O.co2     1 SUB1       -0.561
      6 CB         77.4080   26.9270   42.2440 C.3       1 SUB1        0.019
      7 CG         77.2430   27.1260   40.7540 C.2       1 SUB1        0.037
      8 CD1        77.4330   26.1680   39.7080 C.2       1 SUB1        0.187
      9 CD2        76.8220   28.2030   40.0390 C.2       1 SUB1        0.123
     10 CE2        76.3770   29.5860   40.4000 C.3       1 SUB1        0.005
     11 OE1        77.8230   24.9460   40.0650 O.2       1 SUB1       -0.426
     12 NE1        77.1790   26.5320   38.4750 N.am      1 SUB1       -0.140
     13 OE2        76.7700   27.9040   38.6870 O.3       1 SUB1       -0.176
     14 H11        74.8868   27.7248   41.9540 H         1 SUB1        0.202
     15 H12        74.2265   27.1525   43.3433 H         1 SUB1        0.202
     16 H13        75.3923   28.3198   43.3977 H         1 SUB1        0.202
     17 H21        75.7769   25.5341   42.4394 H         1 SUB1        0.108
     18 H61        77.7033   27.8934   42.6785 H         1 SUB1        0.040
     19 H62        78.2085   26.1878   42.3947 H         1 SUB1        0.040
     20 H101       76.1219   30.1318   39.4797 H         1 SUB1        0.045
     21 H102       75.4878   29.5374   41.0456 H         1 SUB1        0.045
     22 H103       77.1884   30.1177   40.9185 H         1 SUB1        0.045
     23 H121       77.2483   26.0086   37.6258 H         1 SUB1        0.231
@<TRIPOS>BOND
     1    1    2 1  
     2    2    3 1  
     3    2    6 1  
     4    3    4 2  
     5    3    5 2  
     6    6    7 1  
     7    7    8 1  
     8    7    9 2  
     9    8   11 2  
    10    8   12 am 
    11    9   10 1  
    12    9   13 1  
    13   12   13 1  
    14    1   14 1  
    15    1   15 1  
    16    1   16 1  
    17    2   17 1  
    18    6   18 1  
    19    6   19 1  
    20   10   20 1  
    21   10   21 1  
    22   10   22 1  
    23   12   23 1  
@<TRIPOS>SUBSTRUCTURE
     1 SUB1        1 GROUP

