1ftm_ligand
  -I-interpret- 

 23 23  0  0  0  0  0  0  0  0999 V2000
   75.0740   27.4930   42.9170 N   0  3  0  0  0
   76.1360   26.4300   42.9670 C   0  0  0  0  0
   76.4420   26.0550   44.4560 C   0  0  0  0  0
   77.3630   25.2540   44.6680 O   0  0  0  0  0
   75.7220   26.5630   45.3460 O   0  5  0  0  0
   77.4080   26.9270   42.2440 C   0  0  0  0  0
   77.2430   27.1260   40.7540 C   0  0  0  0  0
   77.4330   26.1680   39.7080 C   0  0  0  0  0
   76.8220   28.2030   40.0390 C   0  0  0  0  0
   76.3770   29.5860   40.4000 C   0  0  0  0  0
   77.8230   24.9460   40.0650 O   0  0  0  0  0
   77.1790   26.5320   38.4750 N   0  0  0  0  0
   76.7700   27.9040   38.6870 O   0  0  0  0  0
   74.8868   27.7248   41.9540 H   0  0  0  0  0
   74.2265   27.1525   43.3433 H   0  0  0  0  0
   75.3923   28.3198   43.3977 H   0  0  0  0  0
   75.7769   25.5341   42.4394 H   0  0  0  0  0
   77.7033   27.8934   42.6785 H   0  0  0  0  0
   78.2085   26.1878   42.3947 H   0  0  0  0  0
   76.1219   30.1318   39.4797 H   0  0  0  0  0
   75.4878   29.5374   41.0456 H   0  0  0  0  0
   77.1884   30.1177   40.9185 H   0  0  0  0  0
   77.2483   26.0086   37.6258 H   0  0  0  0  0
  1  2  1  0  0  0
  2  3  1  0  0  0
  2  6  1  0  0  0
  3  4  2  0  0  0
  3  5  1  0  0  0
  6  7  1  0  0  0
  7  8  1  0  0  0
  7  9  2  0  0  0
  8 11  2  0  0  0
  8 12  1  0  0  0
  9 10  1  0  0  0
  9 13  1  0  0  0
 12 13  1  0  0  0
  1 14  1  0  0  0
  1 15  1  0  0  0
  1 16  1  0  0  0
  2 17  1  0  0  0
  6 18  1  0  0  0
  6 19  1  0  0  0
 10 20  1  0  0  0
 10 21  1  0  0  0
 10 22  1  0  0  0
 12 23  1  0  0  0
M  END
$$$$
