1m5w_ligand
  -I-interpret- 

 22 21  0  0  0  0  0  0  0  0999 V2000
   28.4280    0.8800   36.3340 C   0  0  0  0  0
   29.3490    0.8640   35.0910 C   0  0  0  0  0
   30.1260    2.0340   34.9090 C   0  0  0  0  0
   30.7120    2.9560   35.7270 C   0  0  0  0  0
   32.1430    2.5180   35.8320 C   0  0  0  0  0
   29.3820   -0.0770   34.3100 O   0  0  0  0  0
   29.4470    2.7240   34.0760 O   0  0  0  0  0
   30.8490    4.3520   35.3480 O   0  0  0  0  0
   33.1620    3.4640   36.1130 O   0  0  0  0  0
   34.6060    3.1980   36.2560 P   0  0  0  0  0
   35.2570    4.5790   36.5730 O   0  0  0  0  0
   35.0110    2.5260   34.8630 O   0  5  0  0  0
   34.6210    2.1850   37.5150 O   0  5  0  0  0
   27.8733   -0.0687   36.3809 H   0  0  0  0  0
   29.0320    0.9872   37.2470 H   0  0  0  0  0
   27.7110    1.7108   36.2589 H   0  0  0  0  0
   30.1961    2.9281   36.6981 H   0  0  0  0  0
   32.1934    1.7676   36.6347 H   0  0  0  0  0
   32.4114    2.0569   34.8701 H   0  0  0  0  0
   31.3318    4.8160   36.0218 H   0  0  0  0  0
   30.9974    1.6384   34.3667 H   0  0  0  0  0
   30.0289    3.3020   33.5967 H   0  0  0  0  0
  1  2  1  0  0  0
  2  3  1  0  0  0
  2  6  2  0  0  0
  3  4  1  0  0  0
  3  7  1  0  0  0
  4  5  1  0  0  0
  4  8  1  0  0  0
  5  9  1  0  0  0
  9 10  1  0  0  0
 10 11  2  0  0  0
 10 12  1  0  0  0
 10 13  1  0  0  0
  1 14  1  0  0  0
  1 15  1  0  0  0
  1 16  1  0  0  0
  4 17  1  0  0  0
  5 18  1  0  0  0
  5 19  1  0  0  0
  8 20  1  0  0  0
  3 21  1  0  0  0
  7 22  1  0  0  0
M  END
$$$$
