### 
### Created by X-TOOL on Mon Oct 24 23:38:29 2005
### 

@<TRIPOS>MOLECULE
1m5w_ligand
   22    21     1     0     0
SMALL
GAST_HUCK


@<TRIPOS>ATOM
      1 C1         28.4280    0.8800   36.3340 C.3       1 SUB1        0.012
      2 C2         29.3490    0.8640   35.0910 C.2       1 SUB1        0.133
      3 C3         30.1260    2.0340   34.9090 C.3       1 SUB1        0.155
      4 C4         30.7120    2.9560   35.7270 C.3       1 SUB1        0.124
      5 C5         32.1430    2.5180   35.8320 C.3       1 SUB1        0.096
      6 O2         29.3820   -0.0770   34.3100 O.2       1 SUB1       -0.389
      7 O3         29.4470    2.7240   34.0760 O.3       1 SUB1       -0.370
      8 O4         30.8490    4.3520   35.3480 O.3       1 SUB1       -0.384
      9 O5         33.1620    3.4640   36.1130 O.3       1 SUB1       -0.320
     10 P          34.6060    3.1980   36.2560 P.3       1 SUB1        0.205
     11 O2P        35.2570    4.5790   36.5730 O.co2     1 SUB1       -0.535
     12 O1P        35.0110    2.5260   34.8630 O.co2     1 SUB1       -0.535
     13 O3P        34.6210    2.1850   37.5150 O.co2     1 SUB1       -0.535
     14 H11        27.8733   -0.0687   36.3809 H         1 SUB1        0.046
     15 H12        29.0320    0.9872   37.2470 H         1 SUB1        0.046
     16 H13        27.7110    1.7108   36.2589 H         1 SUB1        0.046
     17 H41        30.1961    2.9281   36.6981 H         1 SUB1        0.067
     18 H51        32.1934    1.7676   36.6347 H         1 SUB1        0.064
     19 H52        32.4114    2.0569   34.8701 H         1 SUB1        0.064
     20 H81        31.3318    4.8160   36.0218 H         1 SUB1        0.210
     21 H31        30.9974    1.6384   34.3667 H         1 SUB1        0.086
     22 H71        30.0289    3.3020   33.5967 H         1 SUB1        0.213
@<TRIPOS>BOND
     1    1    2 1  
     2    2    3 1  
     3    2    6 2  
     4    3    4 1  
     5    3    7 1  
     6    4    5 1  
     7    4    8 1  
     8    5    9 1  
     9    9   10 1  
    10   10   11 2  
    11   10   12 2  
    12   10   13 2  
    13    1   14 1  
    14    1   15 1  
    15    1   16 1  
    16    4   17 1  
    17    5   18 1  
    18    5   19 1  
    19    8   20 1  
    20    3   21 1  
    21    7   22 1  
@<TRIPOS>SUBSTRUCTURE
     1 SUB1        1 GROUP

