2avm_ligand
  -I-interpret- 

123122  0  0  0  0  0  0  0  0999 V2000
   23.6060   24.5170   19.8460 C   0  0  0  0  0
   23.2990   25.0150   20.9200 O   0  0  0  0  0
   24.2680   23.1690   19.7490 C   0  0  0  0  0
   23.4440   25.1760   18.7050 N   0  0  0  0  0
   22.9160   26.5230   18.6440 C   0  0  0  0  0
   21.5280   26.5950   17.9700 C   0  0  0  0  0
   20.8870   27.6570   18.0320 O   0  0  0  0  0
   23.8470   27.4840   17.8810 C   0  0  0  0  0
   24.0260   26.9670   16.5740 O   0  0  0  0  0
   25.1910   27.5640   18.6400 C   0  0  0  0  0
   21.0350   25.5200   17.3700 N   0  0  0  0  0
   19.7660   25.4970   16.6560 C   0  0  0  0  0
   18.8780   24.4320   17.2750 C   0  0  0  0  0
   18.8770   23.2950   16.8110 O   0  0  0  0  0
   19.9320   25.3050   15.1440 C   0  0  0  0  0
   20.9720   26.2280   14.5160 C   0  0  0  0  0
   18.5990   25.4250   14.4490 C   0  0  0  0  0
   20.6700   27.7010   14.5590 C   0  0  0  0  0
   18.1930   24.7580   18.3390 N   0  0  0  0  0
   17.4570   23.7980   19.1540 C   0  0  0  0  0
   15.9800   23.8080   18.8260 C   0  0  0  0  0
   17.7590   24.0130   20.6390 C   0  0  0  0  0
   19.1990   24.0410   21.0050 C   0  0  0  0  0
   20.0060   22.8290   20.5870 C   0  0  0  0  0
   19.4480   21.5210   21.1120 C   0  0  0  0  0
   15.6130   23.6820   17.4680 N   0  3  0  0  0
   14.3540   22.9780   17.0910 C   0  0  0  0  0
   14.3550   21.5300   17.5680 C   0  0  0  0  0
   15.3610   20.8000   17.5100 O   0  0  0  0  0
   13.9730   23.1030   15.6420 C   0  0  0  0  0
   14.8170   22.1120   14.8540 C   0  0  0  0  0
   13.9070   21.6730   13.7190 C   0  0  0  0  0
   14.7870   21.2680   12.5400 C   0  0  0  0  0
   13.2200   21.0430   18.0020 N   0  0  0  0  0
   13.0740   19.6400   18.4290 C   0  0  0  0  0
   11.6760   19.1780   18.0740 C   0  0  0  0  0
   10.6920   19.8570   18.3650 O   0  0  0  0  0
   13.4330   19.4830   19.8880 C   0  0  0  0  0
   13.2330   18.0880   20.4300 C   0  0  0  0  0
   11.8220   17.8060   20.9130 C   0  0  0  0  0
   11.1400   18.7160   21.3300 O   0  0  0  0  0
   11.3980   16.5690   20.8650 N   0  0  0  0  0
   11.5780   17.9810   17.5590 N   0  0  0  0  0
   10.3270   17.3550   17.1860 C   0  0  0  0  0
   10.2200   15.9850   17.8450 C   0  0  0  0  0
   11.1900   15.2160   17.8580 O   0  0  0  0  0
   10.2320   17.2500   15.6740 C   0  0  0  0  0
   10.4460   18.5620   14.9250 C   0  0  0  0  0
   10.5570   18.4040   13.4210 C   0  0  0  0  0
    9.3630   17.7970   12.8330 N   0  0  0  0  0
    9.0360   17.5230   11.6030 C   0  3  0  0  0
    9.9180   17.8220   10.6700 N   0  0  0  0  0
    7.8780   16.9620   11.2650 N   0  0  0  0  0
    9.0290   15.6390   18.3410 N   0  0  0  0  0
   25.2163   23.1919   20.2860 H   0  0  0  0  0
   23.6175   22.4136   20.1898 H   0  0  0  0  0
   24.4480   22.9286   18.7012 H   0  0  0  0  0
   23.7027   24.7135   17.8335 H   0  0  0  0  0
   22.8333   26.8276   19.6873 H   0  0  0  0  0
   23.4276   28.4878   17.8124 H   0  0  0  0  0
   24.6044   27.5500   16.0769 H   0  0  0  0  0
   25.6236   26.5664   18.7165 H   0  0  0  0  0
   25.8747   28.2173   18.0978 H   0  0  0  0  0
   25.0193   27.9645   19.6391 H   0  0  0  0  0
   21.5774   24.6572   17.4111 H   0  0  0  0  0
   19.2910   26.4723   16.7622 H   0  0  0  0  0
   20.3190   24.2959   15.0022 H   0  0  0  0  0
   21.0185   25.9588   13.4608 H   0  0  0  0  0
   21.8873   26.0893   15.0914 H   0  0  0  0  0
   17.9211   24.6622   14.8319 H   0  0  0  0  0
   18.1799   26.4133   14.6379 H   0  0  0  0  0
   18.7360   25.2860   13.3766 H   0  0  0  0  0
   19.7376   27.8950   14.0289 H   0  0  0  0  0
   20.5728   28.0205   15.5966 H   0  0  0  0  0
   21.4815   28.2510   14.0826 H   0  0  0  0  0
   18.1718   25.7396   18.6153 H   0  0  0  0  0
   17.7996   22.7922   18.9108 H   0  0  0  0  0
   15.6166   24.7869   19.1386 H   0  0  0  0  0
   15.5626   22.9335   19.3252 H   0  0  0  0  0
   17.3217   23.1669   21.1690 H   0  0  0  0  0
   17.3551   24.9917   20.8980 H   0  0  0  0  0
   19.2404   24.0793   22.0935 H   0  0  0  0  0
   19.6332   24.8953   20.4857 H   0  0  0  0  0
   21.0090   22.9457   20.9975 H   0  0  0  0  0
   19.9849   22.7808   19.4983 H   0  0  0  0  0
   19.4340   21.5447   22.2017 H   0  0  0  0  0
   18.4337   21.3837   20.7373 H   0  0  0  0  0
   20.0764   20.6973   20.7733 H   0  0  0  0  0
   16.3533   23.1126   17.0580 H   0  0  0  0  0
   15.4690   24.6421   17.1551 H   0  0  0  0  0
   13.5626   23.5056   17.6234 H   0  0  0  0  0
   14.1524   24.1186   15.2891 H   0  0  0  0  0
   12.9127   22.8880   15.5089 H   0  0  0  0  0
   15.1473   21.2729   15.4662 H   0  0  0  0  0
   15.7440   22.5562   14.4914 H   0  0  0  0  0
   13.2432   22.4883   13.4313 H   0  0  0  0  0
   13.2895   20.8321   14.0347 H   0  0  0  0  0
   15.3922   22.1201   12.2304 H   0  0  0  0  0
   15.4389   20.4475   12.8398 H   0  0  0  0  0
   14.1563   20.9481   11.7105 H   0  0  0  0  0
   12.4068   21.6571   18.0463 H   0  0  0  0  0
   13.7740   18.9918   17.9018 H   0  0  0  0  0
   12.7759   20.1441   20.4531 H   0  0  0  0  0
   14.4935   19.7157   19.9844 H   0  0  0  0  0
   13.8954   17.9780   21.2887 H   0  0  0  0  0
   13.4396   17.3934   19.6158 H   0  0  0  0  0
   10.4578   16.3393   21.1869 H   0  0  0  0  0
   12.0077   15.8345   20.5057 H   0  0  0  0  0
   12.4384   17.4537   17.4102 H   0  0  0  0  0
    9.4937   17.9654   17.5342 H   0  0  0  0  0
    9.2203   16.9162   15.4436 H   0  0  0  0  0
   11.0226   16.5712   15.3543 H   0  0  0  0  0
   11.3878   18.9841   15.2757 H   0  0  0  0  0
    9.5773   19.1907   15.1204 H   0  0  0  0  0
   11.4043   17.7506   13.2127 H   0  0  0  0  0
   10.6792   19.3961   12.9863 H   0  0  0  0  0
    8.6513   17.5394   13.5167 H   0  0  0  0  0
   10.8083   18.2480   10.9275 H   0  0  0  0  0
    9.7101   17.6274    9.6906 H   0  0  0  0  0
    7.1963   16.7254   11.9859 H   0  0  0  0  0
    7.6719   16.7684   10.2850 H   0  0  0  0  0
    8.8956   14.7135   18.7484 H   0  0  0  0  0
    8.2530   16.3003   18.3123 H   0  0  0  0  0
  1  2  2  0  0  0
  1  3  1  0  0  0
  1  4  1  0  0  0
  4  5  1  0  0  0
  5  6  1  0  0  0
  5  8  1  0  0  0
  6  7  2  0  0  0
  6 11  1  0  0  0
  8  9  1  0  0  0
  8 10  1  0  0  0
 11 12  1  0  0  0
 12 13  1  0  0  0
 12 15  1  0  0  0
 13 14  2  0  0  0
 13 19  1  0  0  0
 15 16  1  0  0  0
 15 17  1  0  0  0
 16 18  1  0  0  0
 19 20  1  0  0  0
 20 21  1  0  0  0
 20 22  1  0  0  0
 21 26  1  0  0  0
 22 23  1  0  0  0
 23 24  1  0  0  0
 24 25  1  0  0  0
 26 27  1  0  0  0
 27 28  1  0  0  0
 27 30  1  0  0  0
 28 29  2  0  0  0
 28 34  1  0  0  0
 30 31  1  0  0  0
 31 32  1  0  0  0
 32 33  1  0  0  0
 34 35  1  0  0  0
 35 36  1  0  0  0
 35 38  1  0  0  0
 36 37  2  0  0  0
 36 43  1  0  0  0
 38 39  1  0  0  0
 39 40  1  0  0  0
 40 41  2  0  0  0
 40 42  1  0  0  0
 43 44  1  0  0  0
 44 45  1  0  0  0
 44 47  1  0  0  0
 45 46  2  0  0  0
 45 54  1  0  0  0
 47 48  1  0  0  0
 48 49  1  0  0  0
 49 50  1  0  0  0
 50 51  1  0  0  0
 51 52  1  0  0  0
 51 53  1  0  0  0
  3 55  1  0  0  0
  3 56  1  0  0  0
  3 57  1  0  0  0
  4 58  1  0  0  0
  5 59  1  0  0  0
  8 60  1  0  0  0
  9 61  1  0  0  0
 10 62  1  0  0  0
 10 63  1  0  0  0
 10 64  1  0  0  0
 11 65  1  0  0  0
 12 66  1  0  0  0
 15 67  1  0  0  0
 16 68  1  0  0  0
 16 69  1  0  0  0
 17 70  1  0  0  0
 17 71  1  0  0  0
 17 72  1  0  0  0
 18 73  1  0  0  0
 18 74  1  0  0  0
 18 75  1  0  0  0
 19 76  1  0  0  0
 20 77  1  0  0  0
 21 78  1  0  0  0
 21 79  1  0  0  0
 22 80  1  0  0  0
 22 81  1  0  0  0
 23 82  1  0  0  0
 23 83  1  0  0  0
 24 84  1  0  0  0
 24 85  1  0  0  0
 25 86  1  0  0  0
 25 87  1  0  0  0
 25 88  1  0  0  0
 26 89  1  0  0  0
 26 90  1  0  0  0
 27 91  1  0  0  0
 30 92  1  0  0  0
 30 93  1  0  0  0
 31 94  1  0  0  0
 31 95  1  0  0  0
 32 96  1  0  0  0
 32 97  1  0  0  0
 33 98  1  0  0  0
 33 99  1  0  0  0
 33100  1  0  0  0
 34101  1  0  0  0
 35102  1  0  0  0
 38103  1  0  0  0
 38104  1  0  0  0
 39105  1  0  0  0
 39106  1  0  0  0
 42107  1  0  0  0
 42108  1  0  0  0
 43109  1  0  0  0
 44110  1  0  0  0
 47111  1  0  0  0
 47112  1  0  0  0
 48113  1  0  0  0
 48114  1  0  0  0
 49115  1  0  0  0
 49116  1  0  0  0
 50117  1  0  0  0
 52118  1  0  0  0
 52119  1  0  0  0
 53120  1  0  0  0
 53121  1  0  0  0
 54122  1  0  0  0
 54123  1  0  0  0
M  END
$$$$
