### 
### Created by X-TOOL on Sun Jun  3 11:52:21 2007
### 

@<TRIPOS>MOLECULE
2avm_ligand
  123   122     1     0     0
SMALL
GAST_HUCK


@<TRIPOS>ATOM
      1 C          23.6060   24.5170   19.8460 C.2       1 SUB1        0.175
      2 O          23.2990   25.0150   20.9200 O.2       1 SUB1       -0.397
      3 CH3        24.2680   23.1690   19.7490 C.3       1 SUB1        0.026
      4 N          23.4440   25.1760   18.7050 N.am      1 SUB1       -0.264
      5 CA         22.9160   26.5230   18.6440 C.3       1 SUB1        0.156
      6 C          21.5280   26.5950   17.9700 C.2       1 SUB1        0.206
      7 O          20.8870   27.6570   18.0320 O.2       1 SUB1       -0.394
      8 CB         23.8470   27.4840   17.8810 C.3       1 SUB1        0.092
      9 OG1        24.0260   26.9670   16.5740 O.3       1 SUB1       -0.387
     10 CG2        25.1910   27.5640   18.6400 C.3       1 SUB1       -0.035
     11 N          21.0350   25.5200   17.3700 N.am      1 SUB1       -0.263
     12 CA         19.7660   25.4970   16.6560 C.3       1 SUB1        0.133
     13 C          18.8780   24.4320   17.2750 C.2       1 SUB1        0.202
     14 O          18.8770   23.2950   16.8110 O.2       1 SUB1       -0.394
     15 CB         19.9320   25.3050   15.1440 C.3       1 SUB1       -0.004
     16 CG1        20.9720   26.2280   14.5160 C.3       1 SUB1       -0.049
     17 CG2        18.5990   25.4250   14.4490 C.3       1 SUB1       -0.058
     18 CD1        20.6700   27.7010   14.5590 C.3       1 SUB1       -0.065
     19 N          18.1930   24.7580   18.3390 N.am      1 SUB1       -0.277
     20 CA         17.4570   23.7980   19.1540 C.3       1 SUB1        0.082
     21 C          15.9800   23.8080   18.8260 C.3       1 SUB1       -0.008
     22 CB         17.7590   24.0130   20.6390 C.3       1 SUB1       -0.025
     23 CG         19.1990   24.0410   21.0050 C.3       1 SUB1       -0.051
     24 CD         20.0060   22.8290   20.5870 C.3       1 SUB1       -0.056
     25 CE         19.4480   21.5210   21.1120 C.3       1 SUB1       -0.065
     26 N          15.6130   23.6820   17.4680 N.4       1 SUB1        0.248
     27 CA         14.3540   22.9780   17.0910 C.3       1 SUB1        0.067
     28 C          14.3550   21.5300   17.5680 C.2       1 SUB1        0.227
     29 O          15.3610   20.8000   17.5100 O.2       1 SUB1       -0.391
     30 CB         13.9730   23.1030   15.6420 C.3       1 SUB1        0.008
     31 CG         14.8170   22.1120   14.8540 C.3       1 SUB1       -0.046
     32 CD         13.9070   21.6730   13.7190 C.3       1 SUB1       -0.056
     33 CE         14.7870   21.2680   12.5400 C.3       1 SUB1       -0.065
     34 N          13.2200   21.0430   18.0020 N.am      1 SUB1       -0.261
     35 CA         13.0740   19.6400   18.4290 C.3       1 SUB1        0.133
     36 C          11.6760   19.1780   18.0740 C.2       1 SUB1        0.204
     37 O          10.6920   19.8570   18.3650 O.2       1 SUB1       -0.394
     38 CB         13.4330   19.4830   19.8880 C.3       1 SUB1        0.004
     39 CG         13.2330   18.0880   20.4300 C.3       1 SUB1        0.041
     40 CD         11.8220   17.8060   20.9130 C.2       1 SUB1        0.174
     41 OE1        11.1400   18.7160   21.3300 O.2       1 SUB1       -0.397
     42 NE2        11.3980   16.5690   20.8650 N.am      1 SUB1       -0.301
     43 N          11.5780   17.9810   17.5590 N.am      1 SUB1       -0.264
     44 CA         10.3270   17.3550   17.1860 C.3       1 SUB1        0.131
     45 C          10.2200   15.9850   17.8450 C.2       1 SUB1        0.199
     46 O          11.1900   15.2160   17.8580 O.2       1 SUB1       -0.395
     47 CB         10.2320   17.2500   15.6740 C.3       1 SUB1       -0.009
     48 CG         10.4460   18.5620   14.9250 C.3       1 SUB1       -0.016
     49 CD         10.5570   18.4040   13.4210 C.3       1 SUB1        0.063
     50 NE          9.3630   17.7970   12.8330 N.pl3     1 SUB1       -0.272
     51 CZ          9.0360   17.5230   11.6030 C.cat     1 SUB1        0.288
     52 NH1         9.9180   17.8220   10.6700 N.pl3     1 SUB1       -0.285
     53 NH2         7.8780   16.9620   11.2650 N.pl3     1 SUB1       -0.285
     54 N           9.0290   15.6390   18.3410 N.am      1 SUB1       -0.299
     55 H          25.2163   23.1919   20.2860 H         1 SUB1        0.047
     56 H          23.6175   22.4136   20.1898 H         1 SUB1        0.047
     57 H          24.4480   22.9286   18.7012 H         1 SUB1        0.047
     58 H          23.7027   24.7135   17.8335 H         1 SUB1        0.188
     59 H          22.8333   26.8276   19.6873 H         1 SUB1        0.083
     60 H          23.4276   28.4878   17.8124 H         1 SUB1        0.064
     61 H          24.6044   27.5500   16.0769 H         1 SUB1        0.210
     62 H          25.6236   26.5664   18.7165 H         1 SUB1        0.026
     63 H          25.8747   28.2173   18.0978 H         1 SUB1        0.026
     64 H          25.0193   27.9645   19.6391 H         1 SUB1        0.026
     65 H          21.5774   24.6572   17.4111 H         1 SUB1        0.188
     66 H          19.2910   26.4723   16.7622 H         1 SUB1        0.080
     67 H          20.3190   24.2959   15.0022 H         1 SUB1        0.034
     68 H          21.0185   25.9588   13.4608 H         1 SUB1        0.027
     69 H          21.8873   26.0893   15.0914 H         1 SUB1        0.027
     70 H          17.9211   24.6622   14.8319 H         1 SUB1        0.023
     71 H          18.1799   26.4133   14.6379 H         1 SUB1        0.023
     72 H          18.7360   25.2860   13.3766 H         1 SUB1        0.023
     73 H          19.7376   27.8950   14.0289 H         1 SUB1        0.023
     74 H          20.5728   28.0205   15.5966 H         1 SUB1        0.023
     75 H          21.4815   28.2510   14.0826 H         1 SUB1        0.023
     76 H          18.1718   25.7396   18.6153 H         1 SUB1        0.186
     77 H          17.7996   22.7922   18.9108 H         1 SUB1        0.061
     78 H          15.6166   24.7869   19.1386 H         1 SUB1        0.084
     79 H          15.5626   22.9335   19.3252 H         1 SUB1        0.084
     80 H          17.3217   23.1669   21.1690 H         1 SUB1        0.029
     81 H          17.3551   24.9917   20.8980 H         1 SUB1        0.029
     82 H          19.2404   24.0793   22.0935 H         1 SUB1        0.027
     83 H          19.6332   24.8953   20.4857 H         1 SUB1        0.027
     84 H          21.0090   22.9457   20.9975 H         1 SUB1        0.026
     85 H          19.9849   22.7808   19.4983 H         1 SUB1        0.026
     86 H          19.4340   21.5447   22.2017 H         1 SUB1        0.023
     87 H          18.4337   21.3837   20.7373 H         1 SUB1        0.023
     88 H          20.0764   20.6973   20.7733 H         1 SUB1        0.023
     89 H          16.3533   23.1126   17.0580 H         1 SUB1        0.204
     90 H          15.4690   24.6421   17.1551 H         1 SUB1        0.204
     91 H          13.5626   23.5056   17.6234 H         1 SUB1        0.110
     92 H          14.1524   24.1186   15.2891 H         1 SUB1        0.035
     93 H          12.9127   22.8880   15.5089 H         1 SUB1        0.035
     94 H          15.1473   21.2729   15.4662 H         1 SUB1        0.027
     95 H          15.7440   22.5562   14.4914 H         1 SUB1        0.027
     96 H          13.2432   22.4883   13.4313 H         1 SUB1        0.026
     97 H          13.2895   20.8321   14.0347 H         1 SUB1        0.026
     98 H          15.3922   22.1201   12.2304 H         1 SUB1        0.023
     99 H          15.4389   20.4475   12.8398 H         1 SUB1        0.023
    100 H          14.1563   20.9481   11.7105 H         1 SUB1        0.023
    101 H          12.4068   21.6571   18.0463 H         1 SUB1        0.189
    102 H          13.7740   18.9918   17.9018 H         1 SUB1        0.080
    103 H          12.7759   20.1441   20.4531 H         1 SUB1        0.034
    104 H          14.4935   19.7157   19.9844 H         1 SUB1        0.034
    105 H          13.8954   17.9780   21.2887 H         1 SUB1        0.050
    106 H          13.4396   17.3934   19.6158 H         1 SUB1        0.050
    107 H          10.4578   16.3393   21.1869 H         1 SUB1        0.181
    108 H          12.0077   15.8345   20.5057 H         1 SUB1        0.181
    109 H          12.4384   17.4537   17.4102 H         1 SUB1        0.188
    110 H           9.4937   17.9654   17.5342 H         1 SUB1        0.080
    111 H           9.2203   16.9162   15.4436 H         1 SUB1        0.031
    112 H          11.0226   16.5712   15.3543 H         1 SUB1        0.031
    113 H          11.3878   18.9841   15.2757 H         1 SUB1        0.030
    114 H           9.5773   19.1907   15.1204 H         1 SUB1        0.030
    115 H          11.4043   17.7506   13.2127 H         1 SUB1        0.069
    116 H          10.6792   19.3961   12.9863 H         1 SUB1        0.069
    117 H           8.6513   17.5394   13.5167 H         1 SUB1        0.264
    118 H          10.8083   18.2480   10.9275 H         1 SUB1        0.262
    119 H           9.7101   17.6274    9.6906 H         1 SUB1        0.262
    120 H           7.1963   16.7254   11.9859 H         1 SUB1        0.262
    121 H           7.6719   16.7684   10.2850 H         1 SUB1        0.262
    122 H           8.8956   14.7135   18.7484 H         1 SUB1        0.182
    123 H           8.2530   16.3003   18.3123 H         1 SUB1        0.182
@<TRIPOS>BOND
     1    1    2 2  
     2    1    3 1  
     3    1    4 am 
     4    4    5 1  
     5    5    6 1  
     6    5    8 1  
     7    6    7 2  
     8    6   11 am 
     9    8    9 1  
    10    8   10 1  
    11   11   12 1  
    12   12   13 1  
    13   12   15 1  
    14   13   14 2  
    15   13   19 am 
    16   15   16 1  
    17   15   17 1  
    18   16   18 1  
    19   19   20 1  
    20   20   21 1  
    21   20   22 1  
    22   21   26 1  
    23   22   23 1  
    24   23   24 1  
    25   24   25 1  
    26   26   27 1  
    27   27   28 1  
    28   27   30 1  
    29   28   29 2  
    30   28   34 am 
    31   30   31 1  
    32   31   32 1  
    33   32   33 1  
    34   34   35 1  
    35   35   36 1  
    36   35   38 1  
    37   36   37 2  
    38   36   43 am 
    39   38   39 1  
    40   39   40 1  
    41   40   41 2  
    42   40   42 am 
    43   43   44 1  
    44   44   45 1  
    45   44   47 1  
    46   45   46 2  
    47   45   54 am 
    48   47   48 1  
    49   48   49 1  
    50   49   50 1  
    51   50   51 1  
    52   51   52 1  
    53   51   53 1  
    54    3   55 1  
    55    3   56 1  
    56    3   57 1  
    57    4   58 1  
    58    5   59 1  
    59    8   60 1  
    60    9   61 1  
    61   10   62 1  
    62   10   63 1  
    63   10   64 1  
    64   11   65 1  
    65   12   66 1  
    66   15   67 1  
    67   16   68 1  
    68   16   69 1  
    69   17   70 1  
    70   17   71 1  
    71   17   72 1  
    72   18   73 1  
    73   18   74 1  
    74   18   75 1  
    75   19   76 1  
    76   20   77 1  
    77   21   78 1  
    78   21   79 1  
    79   22   80 1  
    80   22   81 1  
    81   23   82 1  
    82   23   83 1  
    83   24   84 1  
    84   24   85 1  
    85   25   86 1  
    86   25   87 1  
    87   25   88 1  
    88   26   89 1  
    89   26   90 1  
    90   27   91 1  
    91   30   92 1  
    92   30   93 1  
    93   31   94 1  
    94   31   95 1  
    95   32   96 1  
    96   32   97 1  
    97   33   98 1  
    98   33   99 1  
    99   33  100 1  
   100   34  101 1  
   101   35  102 1  
   102   38  103 1  
   103   38  104 1  
   104   39  105 1  
   105   39  106 1  
   106   42  107 1  
   107   42  108 1  
   108   43  109 1  
   109   44  110 1  
   110   47  111 1  
   111   47  112 1  
   112   48  113 1  
   113   48  114 1  
   114   49  115 1  
   115   49  116 1  
   116   50  117 1  
   117   52  118 1  
   118   52  119 1  
   119   53  120 1  
   120   53  121 1  
   121   54  122 1  
   122   54  123 1  
@<TRIPOS>SUBSTRUCTURE
     1 SUB1        1 GROUP

