1ux7_ligand
  -I-interpret- 

 40 41  0  0  0  0  0  0  0  0999 V2000
    9.3790   19.4890   -9.6130 O   0  0  0  0  0
   10.6620   18.9130   -9.4020 C   0  0  0  0  0
    8.3760   18.5440  -10.0490 C   0  0  0  0  0
    7.2340   18.5170   -9.0460 C   0  0  0  0  0
    6.0850   17.6320   -9.5300 C   0  0  0  0  0
    5.6580   18.0060  -10.9420 C   0  0  0  0  0
    6.9110   17.9990  -11.8070 C   0  0  0  0  0
    7.6490   18.1440   -7.7450 O   0  0  0  0  0
    4.9840   17.7580   -8.6460 O   0  0  0  0  0
    4.7090   17.0830  -11.4410 O   0  0  0  0  0
    7.8580   18.8910  -11.2550 O   0  0  0  0  0
    3.6560   17.6650  -12.2230 C   0  0  0  0  0
    3.1210   16.5640  -13.0950 C   0  0  0  0  0
    1.8730   16.9810  -13.8770 C   0  0  0  0  0
    0.8550   17.6270  -12.9250 C   0  0  0  0  0
    1.5720   18.6860  -12.1110 C   0  0  0  0  0
    4.1530   16.1290  -13.9550 O   0  0  0  0  0
    1.3350   15.8340  -14.5210 O   0  0  0  0  0
   -0.2370   18.2660  -13.5600 O   0  0  0  0  0
    2.6480   18.0990  -11.4260 O   0  0  0  0  0
   11.3646   19.6931   -9.0736 H   0  0  0  0  0
   11.0223   18.4665  -10.3405 H   0  0  0  0  0
   10.5915   18.1340   -8.6286 H   0  0  0  0  0
    8.8315   17.5454  -10.1212 H   0  0  0  0  0
    6.8469   19.5443   -8.9763 H   0  0  0  0  0
    6.4236   16.5854   -9.5314 H   0  0  0  0  0
    5.2132   19.0120  -10.9401 H   0  0  0  0  0
    6.6556   18.3183  -12.8282 H   0  0  0  0  0
    7.3337   16.9839  -11.8351 H   0  0  0  0  0
    6.9197   18.2347   -7.1430 H   0  0  0  0  0
    5.2568   17.5233   -7.7668 H   0  0  0  0  0
    4.0426   18.4967  -12.8303 H   0  0  0  0  0
    2.8369   15.7231  -12.4453 H   0  0  0  0  0
    2.1551   17.7186  -14.6427 H   0  0  0  0  0
    0.4623   16.8450  -12.2585 H   0  0  0  0  0
    0.8725   19.1276  -11.3859 H   0  0  0  0  0
    1.9491   19.4718  -12.7820 H   0  0  0  0  0
    4.9098   15.8787  -13.4383 H   0  0  0  0  0
    1.9894   15.4612  -15.1002 H   0  0  0  0  0
   -0.7136   17.6316  -14.0824 H   0  0  0  0  0
  1  2  1  0  0  0
  1  3  1  0  0  0
  3  4  1  0  0  0
  3 11  1  0  0  0
  4  5  1  0  0  0
  4  8  1  0  0  0
  5  6  1  0  0  0
  5  9  1  0  0  0
  6  7  1  0  0  0
  6 10  1  0  0  0
  7 11  1  0  0  0
 10 12  1  0  0  0
 12 13  1  0  0  0
 12 20  1  0  0  0
 13 14  1  0  0  0
 13 17  1  0  0  0
 14 15  1  0  0  0
 14 18  1  0  0  0
 15 16  1  0  0  0
 15 19  1  0  0  0
 16 20  1  0  0  0
  2 21  1  0  0  0
  2 22  1  0  0  0
  2 23  1  0  0  0
  3 24  1  0  0  0
  4 25  1  0  0  0
  5 26  1  0  0  0
  6 27  1  0  0  0
  7 28  1  0  0  0
  7 29  1  0  0  0
  8 30  1  0  0  0
  9 31  1  0  0  0
 12 32  1  0  0  0
 13 33  1  0  0  0
 14 34  1  0  0  0
 15 35  1  0  0  0
 16 36  1  0  0  0
 16 37  1  0  0  0
 17 38  1  0  0  0
 18 39  1  0  0  0
 19 40  1  0  0  0
M  END
$$$$
