### 
### Created by X-TOOL on Mon Oct 24 22:00:49 2005
### 

@<TRIPOS>MOLECULE
1ux7_ligand
   40    41     1     0     0
SMALL
GAST_HUCK


@<TRIPOS>ATOM
      1 O4A         9.3790   19.4890   -9.6130 O.3       1 SUB1       -0.352
      2 C1B        10.6620   18.9130   -9.4020 C.3       1 SUB1        0.040
      3 C1B         8.3760   18.5440  -10.0490 C.3       1 SUB1        0.187
      4 C2B         7.2340   18.5170   -9.0460 C.3       1 SUB1        0.134
      5 C3B         6.0850   17.6320   -9.5300 C.3       1 SUB1        0.114
      6 C4B         5.6580   18.0060  -10.9420 C.3       1 SUB1        0.113
      7 C5B         6.9110   17.9990  -11.8070 C.3       1 SUB1        0.080
      8 O2B         7.6490   18.1440   -7.7450 O.3       1 SUB1       -0.384
      9 O3B         4.9840   17.7580   -8.6460 O.3       1 SUB1       -0.386
     10 O4B         4.7090   17.0830  -11.4410 O.3       1 SUB1       -0.340
     11 O5B         7.8580   18.8910  -11.2550 O.3       1 SUB1       -0.346
     12 C1B         3.6560   17.6650  -12.2230 C.3       1 SUB1        0.188
     13 C2B         3.1210   16.5640  -13.0950 C.3       1 SUB1        0.134
     14 C3B         1.8730   16.9810  -13.8770 C.3       1 SUB1        0.114
     15 C4B         0.8550   17.6270  -12.9250 C.3       1 SUB1        0.107
     16 C5B         1.5720   18.6860  -12.1110 C.3       1 SUB1        0.079
     17 O2B         4.1530   16.1290  -13.9550 O.3       1 SUB1       -0.384
     18 O3B         1.3350   15.8340  -14.5210 O.3       1 SUB1       -0.386
     19 O4B        -0.2370   18.2660  -13.5600 O.3       1 SUB1       -0.387
     20 O5B         2.6480   18.0990  -11.4260 O.3       1 SUB1       -0.346
     21 H21        11.3646   19.6931   -9.0736 H         1 SUB1        0.052
     22 H22        11.0223   18.4665  -10.3405 H         1 SUB1        0.052
     23 H23        10.5915   18.1340   -8.6286 H         1 SUB1        0.052
     24 H31         8.8315   17.5454  -10.1212 H         1 SUB1        0.094
     25 H41         6.8469   19.5443   -8.9763 H         1 SUB1        0.067
     26 H51         6.4236   16.5854   -9.5314 H         1 SUB1        0.065
     27 H61         5.2132   19.0120  -10.9401 H         1 SUB1        0.065
     28 H71         6.6556   18.3183  -12.8282 H         1 SUB1        0.059
     29 H72         7.3337   16.9839  -11.8351 H         1 SUB1        0.059
     30 H81         6.9197   18.2347   -7.1430 H         1 SUB1        0.210
     31 H91         5.2568   17.5233   -7.7668 H         1 SUB1        0.210
     32 H121        4.0426   18.4967  -12.8303 H         1 SUB1        0.094
     33 H131        2.8369   15.7231  -12.4453 H         1 SUB1        0.067
     34 H141        2.1551   17.7186  -14.6427 H         1 SUB1        0.065
     35 H151        0.4623   16.8450  -12.2585 H         1 SUB1        0.064
     36 H161        0.8725   19.1276  -11.3859 H         1 SUB1        0.059
     37 H162        1.9491   19.4718  -12.7820 H         1 SUB1        0.059
     38 H171        4.9098   15.8787  -13.4383 H         1 SUB1        0.210
     39 H181        1.9894   15.4612  -15.1002 H         1 SUB1        0.210
     40 H191       -0.7136   17.6316  -14.0824 H         1 SUB1        0.210
@<TRIPOS>BOND
     1    1    2 1  
     2    1    3 1  
     3    3    4 1  
     4    3   11 1  
     5    4    5 1  
     6    4    8 1  
     7    5    6 1  
     8    5    9 1  
     9    6    7 1  
    10    6   10 1  
    11    7   11 1  
    12   10   12 1  
    13   12   13 1  
    14   12   20 1  
    15   13   14 1  
    16   13   17 1  
    17   14   15 1  
    18   14   18 1  
    19   15   16 1  
    20   15   19 1  
    21   16   20 1  
    22    2   21 1  
    23    2   22 1  
    24    2   23 1  
    25    3   24 1  
    26    4   25 1  
    27    5   26 1  
    28    6   27 1  
    29    7   28 1  
    30    7   29 1  
    31    8   30 1  
    32    9   31 1  
    33   12   32 1  
    34   13   33 1  
    35   14   34 1  
    36   15   35 1  
    37   16   36 1  
    38   16   37 1  
    39   17   38 1  
    40   18   39 1  
    41   19   40 1  
@<TRIPOS>SUBSTRUCTURE
     1 SUB1        1 GROUP

