### 
### Created by X-TOOL on Tue Oct 25 00:09:22 2005
### 

@<TRIPOS>MOLECULE
1lpg_ligand
   78    82     1     0     0
SMALL
GAST_HUCK


@<TRIPOS>ATOM
      1 C11         2.8550   10.4120   24.2780 C.ar      1 SUB1        0.079
      2 C12         3.6530    9.8170   25.2820 C.ar      1 SUB1       -0.042
      3 C13         4.7520    9.0450   24.9100 C.ar      1 SUB1       -0.045
      4 C14         5.0520    8.8970   23.5340 C.ar      1 SUB1        0.063
      5 C15         4.2710    9.5300   22.5180 C.ar      1 SUB1       -0.027
      6 C16         3.1590   10.2750   22.9060 C.ar      1 SUB1       -0.045
      7 C17         4.8320    9.2430   21.2590 C.2       1 SUB1       -0.043
      8 N18         6.0680    8.2080   22.8800 N.pl3     1 SUB1       -0.246
      9 C19         5.9460    8.4160   21.5380 C.2       1 SUB1        0.134
     10 C20         7.0020    7.2760   23.5300 C.3       1 SUB1        0.084
     11 C21         6.7890    7.9000   20.5480 C.2       1 SUB1        0.229
     12 N22         6.2690    7.6920   19.3480 N.am      1 SUB1       -0.271
     13 C23         7.2510    7.2910   18.3640 C.3       1 SUB1        0.071
     14 C24         7.5000    5.7980   18.2260 C.ar      1 SUB1       -0.006
     15 O27         7.9720    7.6720   20.7820 O.2       1 SUB1       -0.384
     16 C28         8.1890    7.9280   24.1650 C.ar      1 SUB1       -0.010
     17 C31         9.8130    7.7780   25.9590 C.ar      1 SUB1        0.179
     18 C32         8.6300    7.3110   25.3360 C.ar      1 SUB1       -0.003
     19 C33         8.8710    9.0460   23.6240 C.ar      1 SUB1       -0.058
     20 C34        10.0370    9.5370   24.2490 C.ar      1 SUB1       -0.064
     21 C35        10.5100    8.8920   25.4060 C.ar      1 SUB1       -0.014
     22 C36        10.2440    7.0540   27.1730 C.cat     1 SUB1        0.315
     23 N37         9.2600    6.4140   27.8440 N.pl3     1 SUB1       -0.200
     24 N38        11.5270    7.0460   27.5550 N.pl3     1 SUB1       -0.200
     25 C39         8.6730    3.7670   18.8340 C.ar      1 SUB1       -0.020
     26 C40         8.1110    3.0840   17.7320 C.ar      1 SUB1        0.003
     27 C41         7.2000    3.7750   16.9070 C.ar      1 SUB1       -0.020
     28 C42         6.8820    5.1260   17.1570 C.ar      1 SUB1       -0.041
     29 C43         8.3680    5.1190   19.0860 C.ar      1 SUB1       -0.041
     30 N44         8.4350    1.7110   17.4010 N.4       1 SUB1        0.400
     31 C45         9.2820    1.7390   16.2070 C.3       1 SUB1       -0.046
     32 C49         7.2210    0.9230   17.1210 C.3       1 SUB1       -0.046
     33 C53         9.1540    0.8600   18.3650 C.3       1 SUB1       -0.046
     34 O1          1.7490   11.1230   24.7030 O.3       1 SUB1       -0.313
     35 C1          0.9430   11.7990   23.7470 C.3       1 SUB1        0.102
     36 C2         -0.0120   12.5760   24.5990 C.ar      1 SUB1       -0.013
     37 C3         -1.1420   13.1320   23.9890 C.ar      1 SUB1       -0.058
     38 C4         -2.0870   13.8120   24.7850 C.ar      1 SUB1       -0.068
     39 C5         -1.8730   13.9250   26.1750 C.ar      1 SUB1       -0.069
     40 C6         -0.7240   13.3910   26.7840 C.ar      1 SUB1       -0.068
     41 C7          0.2150   12.7180   25.9910 C.ar      1 SUB1       -0.058
     42 H21         3.4127    9.9597   26.3294 H         1 SUB1        0.050
     43 H31         5.3676    8.5653   25.6623 H         1 SUB1        0.054
     44 H61         2.5311   10.7466   22.1588 H         1 SUB1        0.045
     45 H71         4.4849    9.5828   20.2843 H         1 SUB1        0.039
     46 H101        6.4612    6.7307   24.3174 H         1 SUB1        0.076
     47 H102        7.3753    6.5700   22.7736 H         1 SUB1        0.076
     48 H121        5.2964    7.8010   19.1428 H         1 SUB1        0.188
     49 H131        6.9181    7.6558   17.3811 H         1 SUB1        0.072
     50 H132        8.2114    7.7560   18.6310 H         1 SUB1        0.072
     51 H181        8.0741    6.4845   25.7637 H         1 SUB1        0.060
     52 H191        8.4959    9.5256   22.7272 H         1 SUB1        0.056
     53 H201       10.5592   10.3965   23.8444 H         1 SUB1        0.060
     54 H211       11.4163    9.2466   25.8834 H         1 SUB1        0.061
     55 H231        8.2900    6.4569   27.5002 H         1 SUB1        0.192
     56 H232        9.4804    5.8835   28.6990 H         1 SUB1        0.192
     57 H241       12.2323    7.5533   27.0017 H         1 SUB1        0.192
     58 H242       11.8089    6.5326   28.4023 H         1 SUB1        0.192
     59 H251        9.3506    3.2414   19.4970 H         1 SUB1        0.071
     60 H271        6.7387    3.2619   16.0709 H         1 SUB1        0.071
     61 H281        6.1656    5.6430   16.5289 H         1 SUB1        0.061
     62 H291        8.8023    5.6281   19.9388 H         1 SUB1        0.061
     63 H311        9.5453    0.7074   15.9304 H         1 SUB1        0.058
     64 H312        8.7385    2.2059   15.3724 H         1 SUB1        0.058
     65 H313       10.2047    2.3007   16.4147 H         1 SUB1        0.058
     66 H321        6.5895    0.9060   18.0215 H         1 SUB1        0.058
     67 H322        6.6568    1.3834   16.2966 H         1 SUB1        0.058
     68 H323        7.4961   -0.1088   16.8570 H         1 SUB1        0.058
     69 H331       10.0932    1.3565   18.6501 H         1 SUB1        0.058
     70 H332        8.5398    0.7115   19.2653 H         1 SUB1        0.058
     71 H333        9.3877   -0.1119   17.9060 H         1 SUB1        0.058
     72 H351        1.5438   12.4785   23.1248 H         1 SUB1        0.077
     73 H352        0.3980   11.0887   23.1080 H         1 SUB1        0.077
     74 H371       -1.2891   13.0413   22.9189 H         1 SUB1        0.056
     75 H381       -2.9716   14.2448   24.3320 H         1 SUB1        0.060
     76 H391       -2.6097   14.4340   26.7859 H         1 SUB1        0.056
     77 H401       -0.5668   13.4983   27.8512 H         1 SUB1        0.060
     78 H411        1.1119   12.3074   26.4405 H         1 SUB1        0.056
@<TRIPOS>BOND
     1    2    1 ar 
     2    6    1 ar 
     3    1   34 1  
     4    3    2 ar 
     5    4    3 ar 
     6    4    5 ar 
     7    8    4 1  
     8    5    6 ar 
     9    7    5 1  
    10    9    7 2  
    11    8    9 1  
    12   10    8 1  
    13    9   11 1  
    14   16   10 1  
    15   11   12 am 
    16   11   15 2  
    17   12   13 1  
    18   13   14 1  
    19   14   28 ar 
    20   14   29 ar 
    21   16   18 ar 
    22   19   16 ar 
    23   20   19 ar 
    24   21   20 ar 
    25   22   23 1  
    26   22   24 1  
    27   25   26 ar 
    28   29   25 ar 
    29   27   26 ar 
    30   26   30 1  
    31   28   27 ar 
    32   30   31 1  
    33   30   32 1  
    34   30   33 1  
    35   34   35 1  
    36   35   36 1  
    37   36   37 ar 
    38   36   41 ar 
    39   37   38 ar 
    40   38   39 ar 
    41   40   39 ar 
    42   41   40 ar 
    43   17   22 1  
    44   21   17 ar 
    45   18   17 ar 
    46    2   42 1  
    47    3   43 1  
    48    6   44 1  
    49    7   45 1  
    50   10   46 1  
    51   10   47 1  
    52   12   48 1  
    53   13   49 1  
    54   13   50 1  
    55   18   51 1  
    56   19   52 1  
    57   20   53 1  
    58   21   54 1  
    59   23   55 1  
    60   23   56 1  
    61   24   57 1  
    62   24   58 1  
    63   25   59 1  
    64   27   60 1  
    65   28   61 1  
    66   29   62 1  
    67   31   63 1  
    68   31   64 1  
    69   31   65 1  
    70   32   66 1  
    71   32   67 1  
    72   32   68 1  
    73   33   69 1  
    74   33   70 1  
    75   33   71 1  
    76   35   72 1  
    77   35   73 1  
    78   37   74 1  
    79   38   75 1  
    80   39   76 1  
    81   40   77 1  
    82   41   78 1  
@<TRIPOS>SUBSTRUCTURE
     1 SUB1        1 GROUP

