1o38_ligand
  -I-interpret- 

 51 54  0  0  0  0  0  0  0  0999 V2000
   44.0220   -3.0310   26.2340 C   0  0  0  0  0
   44.3330   -1.6250   26.2420 C   0  0  0  0  0
   44.2310   -0.8210   27.3730 C   0  0  0  0  0
   43.8170   -1.4340   28.5140 C   0  0  0  0  0
   43.5170   -2.7500   28.5750 C   0  0  0  0  0
   43.5910   -3.6040   27.4670 C   0  0  0  0  0
   44.1530   -3.7910   25.0430 C   0  3  0  0  0
   43.9290   -5.0950   25.0620 N   0  0  0  0  0
   44.4950   -3.1640   23.9270 N   0  0  0  0  0
   43.6520   -0.9510   29.6990 N   0  0  0  0  0
   43.1500   -3.1160   29.7900 N   0  0  0  0  0
   43.2560   -1.9520   30.4260 C   0  0  0  0  0
   43.0090   -1.8400   31.8180 C   0  0  0  0  0
   42.6560   -2.9710   32.5930 C   0  0  0  0  0
   42.4060   -2.8870   33.9640 C   0  0  0  0  0
   42.0430   -4.1490   34.8160 C   0  0  0  0  0
   40.5370   -4.5580   34.6550 C   0  0  0  0  0
   40.3380   -5.9590   35.2030 N   0  3  0  0  0
   42.5060   -1.6430   34.5750 C   0  0  0  0  0
   42.8490   -0.4840   33.8720 C   0  0  0  0  0
   43.0940   -0.6050   32.4980 C   0  0  0  0  0
   43.4330    0.5290   31.8090 O   0  0  0  0  0
   42.9280    0.7280   34.5730 C   0  0  0  0  0
   44.1210    1.4670   34.6850 C   0  0  0  0  0
   44.1730    2.6630   35.4210 C   0  0  0  0  0
   43.0420    3.1580   36.0620 C   0  0  0  0  0
   41.8450    2.4450   35.9660 C   0  0  0  0  0
   41.7920    1.2510   35.2280 C   0  0  0  0  0
   44.6760   -1.1500   25.3460 H   0  0  0  0  0
   44.4610    0.2300   27.3610 H   0  0  0  0  0
   43.3340   -4.6530   27.5530 H   0  0  0  0  0
   43.6880   -5.5170   25.9520 H   0  0  0  0  0
   43.9790   -5.7190   24.2870 H   0  0  0  0  0
   44.6410   -2.1640   23.9310 H   0  0  0  0  0
   44.6500   -3.6320   23.0600 H   0  0  0  0  0
   43.7570   -0.0290   30.0230 H   0  0  0  0  0
   42.5740   -3.9360   32.1110 H   0  0  0  0  0
   42.2760   -3.9500   35.8630 H   0  0  0  0  0
   42.6970   -4.9580   34.5210 H   0  0  0  0  0
   40.2270   -4.5060   33.6200 H   0  0  0  0  0
   39.9120   -3.8590   35.1990 H   0  0  0  0  0
   40.2810   -6.6820   34.4510 H   0  0  0  0  0
   39.4730   -6.0370   35.7830 H   0  0  0  0  0
   41.1480   -6.1920   35.8060 H   0  0  0  0  0
   42.3120   -1.5670   35.6370 H   0  0  0  0  0
   45.0170    1.1090   34.1950 H   0  0  0  0  0
   45.1010    3.2140   35.4990 H   0  0  0  0  0
   43.0880    4.0800   36.6320 H   0  0  0  0  0
   40.9550    2.8140   36.4580 H   0  0  0  0  0
   40.8520    0.7180   35.1700 H   0  0  0  0  0
   43.5716    0.3129   30.8942 H   0  0  0  0  0
  1  2  4  0  0  0
  1  6  4  0  0  0
  1  7  1  0  0  0
  2  3  4  0  0  0
  2 29  1  0  0  0
  3  4  4  0  0  0
  3 30  1  0  0  0
  4  5  4  0  0  0
  4 10  1  0  0  0
  5  6  4  0  0  0
  5 11  1  0  0  0
  6 31  1  0  0  0
  7  8  1  0  0  0
  7  9  1  0  0  0
  8 32  1  0  0  0
  8 33  1  0  0  0
  9 34  1  0  0  0
  9 35  1  0  0  0
 10 12  1  0  0  0
 10 36  1  0  0  0
 11 12  2  0  0  0
 12 13  1  0  0  0
 13 14  4  0  0  0
 13 21  4  0  0  0
 14 15  4  0  0  0
 14 37  1  0  0  0
 15 16  1  0  0  0
 15 19  4  0  0  0
 16 17  1  0  0  0
 16 38  1  0  0  0
 16 39  1  0  0  0
 17 18  1  0  0  0
 17 40  1  0  0  0
 17 41  1  0  0  0
 18 42  1  0  0  0
 18 43  1  0  0  0
 18 44  1  0  0  0
 19 20  4  0  0  0
 19 45  1  0  0  0
 20 21  4  0  0  0
 20 23  1  0  0  0
 21 22  1  0  0  0
 23 24  4  0  0  0
 23 28  4  0  0  0
 24 25  4  0  0  0
 24 46  1  0  0  0
 25 26  4  0  0  0
 25 47  1  0  0  0
 26 27  4  0  0  0
 26 48  1  0  0  0
 27 28  4  0  0  0
 27 49  1  0  0  0
 28 50  1  0  0  0
 22 51  1  0  0  0
M  END
$$$$
