### 
### Created by X-TOOL on Mon Oct 24 21:55:20 2005
### 

@<TRIPOS>MOLECULE
1o38_ligand
   51    54     1     0     0
SMALL
GAST_HUCK


@<TRIPOS>ATOM
      1 C1         44.0220   -3.0310   26.2340 C.ar      1 SUB1        0.171
      2 C2         44.3330   -1.6250   26.2420 C.ar      1 SUB1       -0.020
      3 C3         44.2310   -0.8210   27.3730 C.ar      1 SUB1       -0.036
      4 C4         43.8170   -1.4340   28.5140 C.ar      1 SUB1        0.081
      5 C5         43.5170   -2.7500   28.5750 C.ar      1 SUB1        0.034
      6 C6         43.5910   -3.6040   27.4670 C.ar      1 SUB1       -0.007
      7 C7         44.1530   -3.7910   25.0430 C.cat     1 SUB1        0.310
      8 N1         43.9290   -5.0950   25.0620 N.pl3     1 SUB1       -0.201
      9 N2         44.4950   -3.1640   23.9270 N.pl3     1 SUB1       -0.201
     10 N3         43.6520   -0.9510   29.6990 N.pl3     1 SUB1       -0.251
     11 N4         43.1500   -3.1160   29.7900 N.2       1 SUB1       -0.310
     12 C8         43.2560   -1.9520   30.4260 C.2       1 SUB1        0.135
     13 C1'        43.0090   -1.8400   31.8180 C.ar      1 SUB1        0.061
     14 C2'        42.6560   -2.9710   32.5930 C.ar      1 SUB1       -0.049
     15 C3'        42.4060   -2.8870   33.9640 C.ar      1 SUB1       -0.043
     16 C31'       42.0430   -4.1490   34.8160 C.3       1 SUB1        0.017
     17 C32'       40.5370   -4.5580   34.6550 C.3       1 SUB1       -0.027
     18 N33'       40.3380   -5.9590   35.2030 N.4       1 SUB1        0.220
     19 C4'        42.5060   -1.6430   34.5750 C.ar      1 SUB1       -0.055
     20 C5'        42.8490   -0.4840   33.8720 C.ar      1 SUB1        0.013
     21 C6'        43.0940   -0.6050   32.4980 C.ar      1 SUB1        0.114
     22 O6'        43.4330    0.5290   31.8090 O.3       1 SUB1       -0.327
     23 C1''       42.9280    0.7280   34.5730 C.ar      1 SUB1       -0.022
     24 C2''       44.1210    1.4670   34.6850 C.ar      1 SUB1       -0.057
     25 C3''       44.1730    2.6630   35.4210 C.ar      1 SUB1       -0.063
     26 C4''       43.0420    3.1580   36.0620 C.ar      1 SUB1       -0.063
     27 C5''       41.8450    2.4450   35.9660 C.ar      1 SUB1       -0.063
     28 C6''       41.7920    1.2510   35.2280 C.ar      1 SUB1       -0.057
     29 H21        44.6760   -1.1500   25.3460 H         1 SUB1        0.059
     30 H31        44.4610    0.2300   27.3610 H         1 SUB1        0.055
     31 H61        43.3340   -4.6530   27.5530 H         1 SUB1        0.060
     32 H81        43.6880   -5.5170   25.9520 H         1 SUB1        0.192
     33 H82        43.9790   -5.7190   24.2870 H         1 SUB1        0.192
     34 H91        44.6410   -2.1640   23.9310 H         1 SUB1        0.192
     35 H92        44.6500   -3.6320   23.0600 H         1 SUB1        0.192
     36 H101       43.7570   -0.0290   30.0230 H         1 SUB1        0.230
     37 H141       42.5740   -3.9360   32.1110 H         1 SUB1        0.057
     38 H161       42.2760   -3.9500   35.8630 H         1 SUB1        0.046
     39 H162       42.6970   -4.9580   34.5210 H         1 SUB1        0.046
     40 H171       40.2270   -4.5060   33.6200 H         1 SUB1        0.083
     41 H172       39.9120   -3.8590   35.1990 H         1 SUB1        0.083
     42 H181       40.2810   -6.6820   34.4510 H         1 SUB1        0.200
     43 H182       39.4730   -6.0370   35.7830 H         1 SUB1        0.200
     44 H183       41.1480   -6.1920   35.8060 H         1 SUB1        0.200
     45 H191       42.3120   -1.5670   35.6370 H         1 SUB1        0.057
     46 H241       45.0170    1.1090   34.1950 H         1 SUB1        0.061
     47 H251       45.1010    3.2140   35.4990 H         1 SUB1        0.061
     48 H261       43.0880    4.0800   36.6320 H         1 SUB1        0.060
     49 H271       40.9550    2.8140   36.4580 H         1 SUB1        0.061
     50 H281       40.8520    0.7180   35.1700 H         1 SUB1        0.061
     51 H221       43.5716    0.3129   30.8942 H         1 SUB1        0.252
@<TRIPOS>BOND
     1    1    2 ar 
     2    1    6 ar 
     3    1    7 1  
     4    2    3 ar 
     5    2   29 1  
     6    3    4 ar 
     7    3   30 1  
     8    4    5 ar 
     9    4   10 1  
    10    5    6 ar 
    11    5   11 1  
    12    6   31 1  
    13    7    8 1  
    14    7    9 1  
    15    8   32 1  
    16    8   33 1  
    17    9   34 1  
    18    9   35 1  
    19   10   12 1  
    20   10   36 1  
    21   11   12 2  
    22   12   13 1  
    23   13   14 ar 
    24   13   21 ar 
    25   14   15 ar 
    26   14   37 1  
    27   15   16 1  
    28   15   19 ar 
    29   16   17 1  
    30   16   38 1  
    31   16   39 1  
    32   17   18 1  
    33   17   40 1  
    34   17   41 1  
    35   18   42 1  
    36   18   43 1  
    37   18   44 1  
    38   19   20 ar 
    39   19   45 1  
    40   20   21 ar 
    41   20   23 1  
    42   21   22 1  
    43   23   24 ar 
    44   23   28 ar 
    45   24   25 ar 
    46   24   46 1  
    47   25   26 ar 
    48   25   47 1  
    49   26   27 ar 
    50   26   48 1  
    51   27   28 ar 
    52   27   49 1  
    53   28   50 1  
    54   22   51 1  
@<TRIPOS>SUBSTRUCTURE
     1 SUB1        1 GROUP

