1gni_ligand
  -I-interpret- 

 53 52  0  0  0  0  0  0  0  0999 V2000
   29.8480   12.4910   35.5290 C   0  0  0  0  0
   29.0440   13.4120   35.8070 O   0  5  0  0  0
   29.4660   11.3690   35.1310 O   0  0  0  0  0
   31.3590   12.7330   35.6690 C   0  0  0  0  0
   31.6740   13.6900   36.8330 C   0  0  0  0  0
   33.1970   13.8230   36.8300 C   0  0  0  0  0
   33.6470   15.2850   36.8820 C   0  0  0  0  0
   35.1420   15.4200   36.5820 C   0  0  0  0  0
   35.4050   15.8770   35.1430 C   0  0  0  0  0
   36.6180   15.1890   34.5120 C   0  0  0  0  0
   37.1540   15.9590   33.2960 C   0  0  0  0  0
   37.1270   15.5550   31.9990 C   0  0  0  0  0
   36.5580   14.2480   31.4630 C   0  0  0  0  0
   35.6750   14.4660   30.2420 C   0  0  0  0  0
   34.4940   13.4960   30.2550 C   0  0  0  0  0
   33.6810   13.5500   28.9680 C   0  0  0  0  0
   32.5900   12.4970   28.9760 C   0  0  0  0  0
   32.5080   11.8090   27.6250 C   0  0  0  0  0
   33.1240   10.4130   27.6620 C   0  0  0  0  0
   32.0470    9.3460   27.6640 C   0  0  0  0  0
   31.8642   11.7752   35.8618 H   0  0  0  0  0
   31.7433   13.1794   34.7400 H   0  0  0  0  0
   31.2097   14.6737   36.6699 H   0  0  0  0  0
   31.3345   13.2692   37.7909 H   0  0  0  0  0
   33.6066   13.3055   37.7099 H   0  0  0  0  0
   33.5972   13.3724   35.9098 H   0  0  0  0  0
   33.0887   15.8650   36.1325 H   0  0  0  0  0
   33.4567   15.6894   37.8871 H   0  0  0  0  0
   35.5812   16.1629   37.2640 H   0  0  0  0  0
   35.6286   14.4442   36.7268 H   0  0  0  0  0
   34.5236   15.6447   34.5273 H   0  0  0  0  0
   35.5893   16.9614   35.1402 H   0  0  0  0  0
   37.4233   15.1216   35.2582 H   0  0  0  0  0
   36.3289   14.1809   34.1801 H   0  0  0  0  0
   37.6030   16.9311   33.4942 H   0  0  0  0  0
   37.5569   16.2367   31.2666 H   0  0  0  0  0
   37.3866   13.5847   31.1743 H   0  0  0  0  0
   35.9506   13.7704   32.2459 H   0  0  0  0  0
   35.2849   15.4944   30.2484 H   0  0  0  0  0
   36.2615   14.2931   29.3277 H   0  0  0  0  0
   34.8725   12.4705   30.3777 H   0  0  0  0  0
   33.8275   13.7524   31.0916 H   0  0  0  0  0
   33.2112   14.5399   28.8718 H   0  0  0  0  0
   34.3414   13.3631   28.1084 H   0  0  0  0  0
   32.8131   11.7406   29.7429 H   0  0  0  0  0
   31.6208   12.9718   29.1883 H   0  0  0  0  0
   31.4526   11.7131   27.3303 H   0  0  0  0  0
   33.0526   12.4072   26.8797 H   0  0  0  0  0
   33.7575   10.2683   26.7745 H   0  0  0  0  0
   33.7270   10.3025   28.5753 H   0  0  0  0  0
   32.5244    8.3554   27.6909 H   0  0  0  0  0
   31.4079    9.4598   28.5520 H   0  0  0  0  0
   31.4384    9.4256   26.7512 H   0  0  0  0  0
  1  2  1  0  0  0
  1  3  2  0  0  0
  1  4  1  0  0  0
  4  5  1  0  0  0
  5  6  1  0  0  0
  6  7  1  0  0  0
  7  8  1  0  0  0
  8  9  1  0  0  0
  9 10  1  0  0  0
 10 11  1  0  0  0
 11 12  2  0  0  0
 12 13  1  0  0  0
 13 14  1  0  0  0
 14 15  1  0  0  0
 15 16  1  0  0  0
 16 17  1  0  0  0
 17 18  1  0  0  0
 18 19  1  0  0  0
 19 20  1  0  0  0
  4 21  1  0  0  0
  4 22  1  0  0  0
  5 23  1  0  0  0
  5 24  1  0  0  0
  6 25  1  0  0  0
  6 26  1  0  0  0
  7 27  1  0  0  0
  7 28  1  0  0  0
  8 29  1  0  0  0
  8 30  1  0  0  0
  9 31  1  0  0  0
  9 32  1  0  0  0
 10 33  1  0  0  0
 10 34  1  0  0  0
 11 35  1  0  0  0
 12 36  1  0  0  0
 13 37  1  0  0  0
 13 38  1  0  0  0
 14 39  1  0  0  0
 14 40  1  0  0  0
 15 41  1  0  0  0
 15 42  1  0  0  0
 16 43  1  0  0  0
 16 44  1  0  0  0
 17 45  1  0  0  0
 17 46  1  0  0  0
 18 47  1  0  0  0
 18 48  1  0  0  0
 19 49  1  0  0  0
 19 50  1  0  0  0
 20 51  1  0  0  0
 20 52  1  0  0  0
 20 53  1  0  0  0
M  END
$$$$
