### 
### Created by X-TOOL on Tue Oct 25 02:18:51 2005
### 

@<TRIPOS>MOLECULE
1gni_ligand
   53    52     1     0     0
SMALL
GAST_HUCK


@<TRIPOS>ATOM
      1 C1         29.8480   12.4910   35.5290 C.2       1 SUB1        0.028
      2 O1         29.0440   13.4120   35.8070 O.co2     1 SUB1       -0.567
      3 O2         29.4660   11.3690   35.1310 O.co2     1 SUB1       -0.567
      4 C2         31.3590   12.7330   35.6690 C.3       1 SUB1       -0.014
      5 C3         31.6740   13.6900   36.8330 C.3       1 SUB1       -0.041
      6 C4         33.1970   13.8230   36.8300 C.3       1 SUB1       -0.050
      7 C5         33.6470   15.2850   36.8820 C.3       1 SUB1       -0.053
      8 C6         35.1420   15.4200   36.5820 C.3       1 SUB1       -0.052
      9 C7         35.4050   15.8770   35.1430 C.3       1 SUB1       -0.046
     10 C8         36.6180   15.1890   34.5120 C.3       1 SUB1       -0.036
     11 C9         37.1540   15.9590   33.2960 C.2       1 SUB1       -0.099
     12 C10        37.1270   15.5550   31.9990 C.2       1 SUB1       -0.099
     13 C11        36.5580   14.2480   31.4630 C.3       1 SUB1       -0.036
     14 C12        35.6750   14.4660   30.2420 C.3       1 SUB1       -0.046
     15 C13        34.4940   13.4960   30.2550 C.3       1 SUB1       -0.052
     16 C14        33.6810   13.5500   28.9680 C.3       1 SUB1       -0.053
     17 C15        32.5900   12.4970   28.9760 C.3       1 SUB1       -0.053
     18 C16        32.5080   11.8090   27.6250 C.3       1 SUB1       -0.053
     19 C17        33.1240   10.4130   27.6620 C.3       1 SUB1       -0.056
     20 C18        32.0470    9.3460   27.6640 C.3       1 SUB1       -0.065
     21 H41        31.8642   11.7752   35.8618 H         1 SUB1        0.048
     22 H42        31.7433   13.1794   34.7400 H         1 SUB1        0.048
     23 H51        31.2097   14.6737   36.6699 H         1 SUB1        0.030
     24 H52        31.3345   13.2692   37.7909 H         1 SUB1        0.030
     25 H61        33.6066   13.3055   37.7099 H         1 SUB1        0.027
     26 H62        33.5972   13.3724   35.9098 H         1 SUB1        0.027
     27 H71        33.0887   15.8650   36.1325 H         1 SUB1        0.026
     28 H72        33.4567   15.6894   37.8871 H         1 SUB1        0.026
     29 H81        35.5812   16.1629   37.2640 H         1 SUB1        0.027
     30 H82        35.6286   14.4442   36.7268 H         1 SUB1        0.027
     31 H91        34.5236   15.6447   34.5273 H         1 SUB1        0.029
     32 H92        35.5893   16.9614   35.1402 H         1 SUB1        0.029
     33 H101       37.4233   15.1216   35.2582 H         1 SUB1        0.039
     34 H102       36.3289   14.1809   34.1801 H         1 SUB1        0.039
     35 H111       37.6030   16.9311   33.4942 H         1 SUB1        0.045
     36 H121       37.5569   16.2367   31.2666 H         1 SUB1        0.045
     37 H131       37.3866   13.5847   31.1743 H         1 SUB1        0.039
     38 H132       35.9506   13.7704   32.2459 H         1 SUB1        0.039
     39 H141       35.2849   15.4944   30.2484 H         1 SUB1        0.029
     40 H142       36.2615   14.2931   29.3277 H         1 SUB1        0.029
     41 H151       34.8725   12.4705   30.3777 H         1 SUB1        0.027
     42 H152       33.8275   13.7524   31.0916 H         1 SUB1        0.027
     43 H161       33.2112   14.5399   28.8718 H         1 SUB1        0.026
     44 H162       34.3414   13.3631   28.1084 H         1 SUB1        0.026
     45 H171       32.8131   11.7406   29.7429 H         1 SUB1        0.026
     46 H172       31.6208   12.9718   29.1883 H         1 SUB1        0.026
     47 H181       31.4526   11.7131   27.3303 H         1 SUB1        0.026
     48 H182       33.0526   12.4072   26.8797 H         1 SUB1        0.026
     49 H191       33.7575   10.2683   26.7745 H         1 SUB1        0.026
     50 H192       33.7270   10.3025   28.5753 H         1 SUB1        0.026
     51 H201       32.5244    8.3554   27.6909 H         1 SUB1        0.023
     52 H202       31.4079    9.4598   28.5520 H         1 SUB1        0.023
     53 H203       31.4384    9.4256   26.7512 H         1 SUB1        0.023
@<TRIPOS>BOND
     1    1    2 2  
     2    1    3 2  
     3    1    4 1  
     4    4    5 1  
     5    5    6 1  
     6    6    7 1  
     7    7    8 1  
     8    8    9 1  
     9    9   10 1  
    10   10   11 1  
    11   11   12 2  
    12   12   13 1  
    13   13   14 1  
    14   14   15 1  
    15   15   16 1  
    16   16   17 1  
    17   17   18 1  
    18   18   19 1  
    19   19   20 1  
    20    4   21 1  
    21    4   22 1  
    22    5   23 1  
    23    5   24 1  
    24    6   25 1  
    25    6   26 1  
    26    7   27 1  
    27    7   28 1  
    28    8   29 1  
    29    8   30 1  
    30    9   31 1  
    31    9   32 1  
    32   10   33 1  
    33   10   34 1  
    34   11   35 1  
    35   12   36 1  
    36   13   37 1  
    37   13   38 1  
    38   14   39 1  
    39   14   40 1  
    40   15   41 1  
    41   15   42 1  
    42   16   43 1  
    43   16   44 1  
    44   17   45 1  
    45   17   46 1  
    46   18   47 1  
    47   18   48 1  
    48   19   49 1  
    49   19   50 1  
    50   20   51 1  
    51   20   52 1  
    52   20   53 1  
@<TRIPOS>SUBSTRUCTURE
     1 SUB1        1 GROUP

