### 
### Created by X-TOOL on Mon Oct 24 22:40:54 2005
### 

@<TRIPOS>MOLECULE
1qkb_ligand
   63    62     1     0     0
SMALL
GAST_HUCK


@<TRIPOS>ATOM
      1 N           6.9540   16.5470   15.1220 N.4       1 SUB1        0.238
      2 CA          6.4560   17.8430   14.5550 C.3       1 SUB1        0.065
      3 C           5.2380   18.3380   15.3310 C.2       1 SUB1        0.227
      4 O           4.4820   17.5120   15.8490 O.2       1 SUB1       -0.391
      5 CB          6.1980   17.7410   13.0490 C.3       1 SUB1        0.008
      6 CG          5.2540   16.6210   12.6200 C.3       1 SUB1       -0.041
      7 CD          5.1780   16.5400   11.0930 C.3       1 SUB1       -0.012
      8 CE          6.4350   15.8900   10.4940 C.3       1 SUB1       -0.035
      9 NZ          6.5840   14.4590   10.9350 N.4       1 SUB1        0.219
     10 N           5.0710   19.6460   15.4290 N.am      1 SUB1       -0.261
     11 CA          3.9410   20.2190   16.1820 C.3       1 SUB1        0.133
     12 C           2.6510   20.1800   15.3760 C.2       1 SUB1        0.205
     13 O           2.6630   20.4870   14.1830 O.2       1 SUB1       -0.394
     14 CB          4.2440   21.6680   16.5990 C.3       1 SUB1       -0.006
     15 H11         6.3672   16.2702   15.8934 H         1 SUB1        0.201
     16 H21         7.2528   18.5887   14.6933 H         1 SUB1        0.110
     17 CG1         3.1460   22.2740   17.4450 C.3       1 SUB1       -0.058
     18 CG2         5.5760   21.7060   17.3710 C.3       1 SUB1       -0.058
     19 N           1.5590   19.8180   16.0730 N.am      1 SUB1       -0.268
     20 CA          0.2770   19.7990   15.3790 C.3       1 SUB1        0.081
     21 C          -0.7350   20.6380   16.1740 C.2       1 SUB1        0.053
     22 O          -1.6780   21.1460   15.5200 O.co2     1 SUB1       -0.564
     23 CB         -0.2820   18.3680   15.2540 C.3       1 SUB1       -0.018
     24 CG         -1.4010   18.4250   14.1870 C.3       1 SUB1       -0.043
     25 CD         -2.1110   17.0860   14.1500 C.3       1 SUB1       -0.012
     26 CE         -3.4420   17.2520   13.4300 C.3       1 SUB1       -0.035
     27 NZ         -3.1130   17.0310   11.9760 N.4       1 SUB1        0.219
     28 OXT        -0.5830   20.7290   17.4140 O.co2     1 SUB1       -0.564
     29 H51         7.1646   17.5798   12.5494 H         1 SUB1        0.035
     30 H52         5.7665   18.6955   12.7133 H         1 SUB1        0.035
     31 H61         4.2498   16.8198   13.0224 H         1 SUB1        0.027
     32 H62         5.6245   15.6637   13.0154 H         1 SUB1        0.027
     33 H71         5.0749   17.5571   10.6869 H         1 SUB1        0.032
     34 H72         4.2989   15.9419   10.8112 H         1 SUB1        0.032
     35 H81         7.3195   16.4574   10.8192 H         1 SUB1        0.081
     36 H82         6.3635   15.9196    9.3967 H         1 SUB1        0.081
     37 H91         6.6654   14.4236   11.9391 H         1 SUB1        0.199
     38 H92         7.4112   14.0629   10.5167 H         1 SUB1        0.199
     39 H93         5.7753   13.9319   10.6446 H         1 SUB1        0.199
     40 H101        5.7241   20.2584   14.9835 H         1 SUB1        0.189
     41 H111        3.7976   19.6174   17.0917 H         1 SUB1        0.080
     42 H141        4.3460   22.2738   15.6865 H         1 SUB1        0.034
     43 H171        2.2067   22.2865   16.8726 H         1 SUB1        0.023
     44 H172        3.4210   23.3027   17.7207 H         1 SUB1        0.023
     45 H173        3.0118   21.6735   18.3568 H         1 SUB1        0.023
     46 H181        5.4951   21.0811   18.2726 H         1 SUB1        0.023
     47 H182        5.8016   22.7425   17.6623 H         1 SUB1        0.023
     48 H183        6.3827   21.3216   16.7296 H         1 SUB1        0.023
     49 H191        1.6246   19.5691   17.0393 H         1 SUB1        0.190
     50 H201        0.4066   20.2265   14.3738 H         1 SUB1        0.078
     51 H231       -0.6932   18.0351   16.2184 H         1 SUB1        0.032
     52 H232        0.5119   17.6764   14.9356 H         1 SUB1        0.032
     53 H241       -0.9613   18.6374   13.2013 H         1 SUB1        0.027
     54 H242       -2.1190   19.2169   14.4464 H         1 SUB1        0.027
     55 H251       -2.2884   16.7338   15.1769 H         1 SUB1        0.032
     56 H252       -1.4899   16.3537   13.6134 H         1 SUB1        0.032
     57 H261       -3.8465   18.2626   13.5881 H         1 SUB1        0.081
     58 H262       -4.1703   16.5065   13.7818 H         1 SUB1        0.081
     59 H271       -2.4427   17.7209   11.6746 H         1 SUB1        0.199
     60 H272       -3.9528   17.1152   11.4249 H         1 SUB1        0.199
     61 H273       -2.7234   16.1091   11.8560 H         1 SUB1        0.199
     62 H12         7.9014   16.6638   15.4457 H         1 SUB1        0.201
     63 H13         6.9280   15.8359   14.4081 H         1 SUB1        0.201
@<TRIPOS>BOND
     1    2    1 1  
     2    2    5 1  
     3    3    2 1  
     4    3    4 2  
     5    5    6 1  
     6    6    7 1  
     7    7    8 1  
     8    8    9 1  
     9   11   10 1  
    10   11   14 1  
    11   12   11 1  
    12   12   13 2  
    13   14   18 1  
    14   14   17 1  
    15   10    3 am 
    16   19   20 1  
    17   20   23 1  
    18   20   21 1  
    19   21   22 2  
    20   21   28 2  
    21   23   24 1  
    22   24   25 1  
    23   25   26 1  
    24   26   27 1  
    25   12   19 am 
    26    1   15 1  
    27    2   16 1  
    28    5   29 1  
    29    5   30 1  
    30    6   31 1  
    31    6   32 1  
    32    7   33 1  
    33    7   34 1  
    34    8   35 1  
    35    8   36 1  
    36    9   37 1  
    37    9   38 1  
    38    9   39 1  
    39   10   40 1  
    40   11   41 1  
    41   14   42 1  
    42   17   43 1  
    43   17   44 1  
    44   17   45 1  
    45   18   46 1  
    46   18   47 1  
    47   18   48 1  
    48   19   49 1  
    49   20   50 1  
    50   23   51 1  
    51   23   52 1  
    52   24   53 1  
    53   24   54 1  
    54   25   55 1  
    55   25   56 1  
    56   26   57 1  
    57   26   58 1  
    58   27   59 1  
    59   27   60 1  
    60   27   61 1  
    61    1   62 1  
    62    1   63 1  
@<TRIPOS>SUBSTRUCTURE
     1 SUB1        1 GROUP

