1qkb_ligand
  -I-interpret- 

 63 62  0  0  0  0  0  0  0  0999 V2000
    6.9540   16.5470   15.1220 N   0  3  0  0  0
    6.4560   17.8430   14.5550 C   0  0  0  0  0
    5.2380   18.3380   15.3310 C   0  0  0  0  0
    4.4820   17.5120   15.8490 O   0  0  0  0  0
    6.1980   17.7410   13.0490 C   0  0  0  0  0
    5.2540   16.6210   12.6200 C   0  0  0  0  0
    5.1780   16.5400   11.0930 C   0  0  0  0  0
    6.4350   15.8900   10.4940 C   0  0  0  0  0
    6.5840   14.4590   10.9350 N   0  3  0  0  0
    5.0710   19.6460   15.4290 N   0  0  0  0  0
    3.9410   20.2190   16.1820 C   0  0  0  0  0
    2.6510   20.1800   15.3760 C   0  0  0  0  0
    2.6630   20.4870   14.1830 O   0  0  0  0  0
    4.2440   21.6680   16.5990 C   0  0  0  0  0
    6.3672   16.2702   15.8934 H   0  0  0  0  0
    7.2528   18.5887   14.6933 H   0  0  0  0  0
    3.1460   22.2740   17.4450 C   0  0  0  0  0
    5.5760   21.7060   17.3710 C   0  0  0  0  0
    1.5590   19.8180   16.0730 N   0  0  0  0  0
    0.2770   19.7990   15.3790 C   0  0  0  0  0
   -0.7350   20.6380   16.1740 C   0  0  0  0  0
   -1.6780   21.1460   15.5200 O   0  5  0  0  0
   -0.2820   18.3680   15.2540 C   0  0  0  0  0
   -1.4010   18.4250   14.1870 C   0  0  0  0  0
   -2.1110   17.0860   14.1500 C   0  0  0  0  0
   -3.4420   17.2520   13.4300 C   0  0  0  0  0
   -3.1130   17.0310   11.9760 N   0  3  0  0  0
   -0.5830   20.7290   17.4140 O   0  0  0  0  0
    7.1646   17.5798   12.5494 H   0  0  0  0  0
    5.7665   18.6955   12.7133 H   0  0  0  0  0
    4.2498   16.8198   13.0224 H   0  0  0  0  0
    5.6245   15.6637   13.0154 H   0  0  0  0  0
    5.0749   17.5571   10.6869 H   0  0  0  0  0
    4.2989   15.9419   10.8112 H   0  0  0  0  0
    7.3195   16.4574   10.8192 H   0  0  0  0  0
    6.3635   15.9196    9.3967 H   0  0  0  0  0
    6.6654   14.4236   11.9391 H   0  0  0  0  0
    7.4112   14.0629   10.5167 H   0  0  0  0  0
    5.7753   13.9319   10.6446 H   0  0  0  0  0
    5.7241   20.2584   14.9835 H   0  0  0  0  0
    3.7976   19.6174   17.0917 H   0  0  0  0  0
    4.3460   22.2738   15.6865 H   0  0  0  0  0
    2.2067   22.2865   16.8726 H   0  0  0  0  0
    3.4210   23.3027   17.7207 H   0  0  0  0  0
    3.0118   21.6735   18.3568 H   0  0  0  0  0
    5.4951   21.0811   18.2726 H   0  0  0  0  0
    5.8016   22.7425   17.6623 H   0  0  0  0  0
    6.3827   21.3216   16.7296 H   0  0  0  0  0
    1.6246   19.5691   17.0393 H   0  0  0  0  0
    0.4066   20.2265   14.3738 H   0  0  0  0  0
   -0.6932   18.0351   16.2184 H   0  0  0  0  0
    0.5119   17.6764   14.9356 H   0  0  0  0  0
   -0.9613   18.6374   13.2013 H   0  0  0  0  0
   -2.1190   19.2169   14.4464 H   0  0  0  0  0
   -2.2884   16.7338   15.1769 H   0  0  0  0  0
   -1.4899   16.3537   13.6134 H   0  0  0  0  0
   -3.8465   18.2626   13.5881 H   0  0  0  0  0
   -4.1703   16.5065   13.7818 H   0  0  0  0  0
   -2.4427   17.7209   11.6746 H   0  0  0  0  0
   -3.9528   17.1152   11.4249 H   0  0  0  0  0
   -2.7234   16.1091   11.8560 H   0  0  0  0  0
    7.9014   16.6638   15.4457 H   0  0  0  0  0
    6.9280   15.8359   14.4081 H   0  0  0  0  0
  2  1  1  0  0  0
  2  5  1  0  0  0
  3  2  1  0  0  0
  3  4  2  0  0  0
  5  6  1  0  0  0
  6  7  1  0  0  0
  7  8  1  0  0  0
  8  9  1  0  0  0
 11 10  1  0  0  0
 11 14  1  0  0  0
 12 11  1  0  0  0
 12 13  2  0  0  0
 14 18  1  0  0  0
 14 17  1  0  0  0
 10  3  1  0  0  0
 19 20  1  0  0  0
 20 23  1  0  0  0
 20 21  1  0  0  0
 21 22  1  0  0  0
 21 28  2  0  0  0
 23 24  1  0  0  0
 24 25  1  0  0  0
 25 26  1  0  0  0
 26 27  1  0  0  0
 12 19  1  0  0  0
  1 15  1  0  0  0
  2 16  1  0  0  0
  5 29  1  0  0  0
  5 30  1  0  0  0
  6 31  1  0  0  0
  6 32  1  0  0  0
  7 33  1  0  0  0
  7 34  1  0  0  0
  8 35  1  0  0  0
  8 36  1  0  0  0
  9 37  1  0  0  0
  9 38  1  0  0  0
  9 39  1  0  0  0
 10 40  1  0  0  0
 11 41  1  0  0  0
 14 42  1  0  0  0
 17 43  1  0  0  0
 17 44  1  0  0  0
 17 45  1  0  0  0
 18 46  1  0  0  0
 18 47  1  0  0  0
 18 48  1  0  0  0
 19 49  1  0  0  0
 20 50  1  0  0  0
 23 51  1  0  0  0
 23 52  1  0  0  0
 24 53  1  0  0  0
 24 54  1  0  0  0
 25 55  1  0  0  0
 25 56  1  0  0  0
 26 57  1  0  0  0
 26 58  1  0  0  0
 27 59  1  0  0  0
 27 60  1  0  0  0
 27 61  1  0  0  0
  1 62  1  0  0  0
  1 63  1  0  0  0
M  END
$$$$
