### 
### Created by X-TOOL on Tue Oct 25 02:06:51 2005
### 

@<TRIPOS>MOLECULE
1jao_ligand
   43    43     1     0     0
SMALL
GAST_HUCK


@<TRIPOS>ATOM
      1 C1         28.1410   59.3310   50.4100 C.2       1 SUB1        0.184
      2 O1         27.9380   60.4170   49.8620 O.2       1 SUB1       -0.396
      3 C2         27.0550   58.6650   51.2520 C.3       1 SUB1        0.067
      4 C3         25.8220   58.4370   50.3520 C.3       1 SUB1        0.001
      5 C1'        25.8180   57.1130   49.5940 C.ar      1 SUB1       -0.041
      6 C2'        26.5800   56.0320   50.0170 C.ar      1 SUB1       -0.060
      7 C3'        26.5160   54.8120   49.3740 C.ar      1 SUB1       -0.069
      8 C4'        25.6920   54.6650   48.2970 C.ar      1 SUB1       -0.069
      9 C5'        24.9260   55.7290   47.8470 C.ar      1 SUB1       -0.069
     10 C6'        24.9970   56.9420   48.4960 C.ar      1 SUB1       -0.060
     11 C'         26.7860   59.5460   52.4960 C.3       1 SUB1        0.012
     12 S'         25.4920   58.9180   53.6320 S.3       1 SUB1       -0.175
     13 N          29.3000   58.6810   50.3180 N.am      1 SUB1       -0.266
     14 CA         30.4080   59.2270   49.5530 C.3       1 SUB1        0.128
     15 C          30.4740   58.6420   48.1610 C.2       1 SUB1        0.203
     16 O          30.2400   57.4560   47.9690 O.2       1 SUB1       -0.394
     17 CB         31.6840   59.0130   50.2740 C.3       1 SUB1       -0.024
     18 C1         32.1720   58.3430   45.3570 C.2       1 SUB1        0.196
     19 N1         32.1630   57.0380   45.6440 N.am      1 SUB1       -0.299
     20 O1         32.7810   58.7980   44.3830 O.2       1 SUB1       -0.395
     21 C2         30.9500   59.0920   45.8270 C.3       1 SUB1        0.120
     22 N2         30.8880   59.4780   47.2170 N.am      1 SUB1       -0.266
     23 H131       29.4093   57.8026   50.7832 H         1 SUB1        0.188
     24 H141       30.2487   60.3109   49.4546 H         1 SUB1        0.080
     25 H171       31.6566   59.5482   51.2346 H         1 SUB1        0.028
     26 H172       32.5174   59.3942   49.6656 H         1 SUB1        0.028
     27 H31        27.4126   57.6843   51.5989 H         1 SUB1        0.057
     28 H41        25.7807   59.2529   49.6154 H         1 SUB1        0.045
     29 H42        24.9243   58.4703   50.9868 H         1 SUB1        0.045
     30 H61        27.2389   56.1485   50.8699 H         1 SUB1        0.056
     31 H71        27.1152   53.9784   49.7219 H         1 SUB1        0.060
     32 H81        25.6358   53.7089   47.7892 H         1 SUB1        0.056
     33 H91        24.2747   55.6072   46.9891 H         1 SUB1        0.060
     34 H101       24.4003   57.7741   48.1402 H         1 SUB1        0.056
     35 H111       26.4779   60.5426   52.1470 H         1 SUB1        0.040
     36 H112       27.7249   59.6300   53.0630 H         1 SUB1        0.040
     37 H121       25.3889   59.5546   54.4067 H         1 SUB1        0.102
     38 H173       31.8257   57.9377   50.4573 H         1 SUB1        0.028
     39 H191       32.9325   56.4607   45.3709 H         1 SUB1        0.182
     40 H192       31.3868   56.6387   46.1319 H         1 SUB1        0.182
     41 H211       30.0768   58.4543   45.6248 H         1 SUB1        0.076
     42 H212       30.8789   60.0119   45.2280 H         1 SUB1        0.076
     43 H221       31.1654   60.4031   47.4762 H         1 SUB1        0.188
@<TRIPOS>BOND
     1    1    3 1  
     2    1    2 2  
     3    3   11 1  
     4    3    4 1  
     5    4    5 1  
     6    5   10 ar 
     7    5    6 ar 
     8    6    7 ar 
     9    7    8 ar 
    10    9    8 ar 
    11   10    9 ar 
    12   11   12 1  
    13   15   14 1  
    14   14   17 1  
    15   14   13 1  
    16   15   16 2  
    17   21   18 1  
    18   18   20 2  
    19   18   19 am 
    20   22   21 1  
    21   13    1 am 
    22   22   15 am 
    23   13   23 1  
    24   14   24 1  
    25   17   25 1  
    26   17   26 1  
    27    3   27 1  
    28    4   28 1  
    29    4   29 1  
    30    6   30 1  
    31    7   31 1  
    32    8   32 1  
    33    9   33 1  
    34   10   34 1  
    35   11   35 1  
    36   11   36 1  
    37   12   37 1  
    38   17   38 1  
    39   19   39 1  
    40   19   40 1  
    41   21   41 1  
    42   21   42 1  
    43   22   43 1  
@<TRIPOS>SUBSTRUCTURE
     1 SUB1        1 GROUP

