1jao_ligand
  -I-interpret- 

 43 43  0  0  0  0  0  0  0  0999 V2000
   28.1410   59.3310   50.4100 C   0  0  0  0  0
   27.9380   60.4170   49.8620 O   0  0  0  0  0
   27.0550   58.6650   51.2520 C   0  0  0  0  0
   25.8220   58.4370   50.3520 C   0  0  0  0  0
   25.8180   57.1130   49.5940 C   0  0  0  0  0
   26.5800   56.0320   50.0170 C   0  0  0  0  0
   26.5160   54.8120   49.3740 C   0  0  0  0  0
   25.6920   54.6650   48.2970 C   0  0  0  0  0
   24.9260   55.7290   47.8470 C   0  0  0  0  0
   24.9970   56.9420   48.4960 C   0  0  0  0  0
   26.7860   59.5460   52.4960 C   0  0  0  0  0
   25.4920   58.9180   53.6320 S   0  0  0  0  0
   29.3000   58.6810   50.3180 N   0  0  0  0  0
   30.4080   59.2270   49.5530 C   0  0  0  0  0
   30.4740   58.6420   48.1610 C   0  0  0  0  0
   30.2400   57.4560   47.9690 O   0  0  0  0  0
   31.6840   59.0130   50.2740 C   0  0  0  0  0
   32.1720   58.3430   45.3570 C   0  0  0  0  0
   32.1630   57.0380   45.6440 N   0  0  0  0  0
   32.7810   58.7980   44.3830 O   0  0  0  0  0
   30.9500   59.0920   45.8270 C   0  0  0  0  0
   30.8880   59.4780   47.2170 N   0  0  0  0  0
   29.4093   57.8026   50.7832 H   0  0  0  0  0
   30.2487   60.3109   49.4546 H   0  0  0  0  0
   31.6566   59.5482   51.2346 H   0  0  0  0  0
   32.5174   59.3942   49.6656 H   0  0  0  0  0
   27.4126   57.6843   51.5989 H   0  0  0  0  0
   25.7807   59.2529   49.6154 H   0  0  0  0  0
   24.9243   58.4703   50.9868 H   0  0  0  0  0
   27.2389   56.1485   50.8699 H   0  0  0  0  0
   27.1152   53.9784   49.7219 H   0  0  0  0  0
   25.6358   53.7089   47.7892 H   0  0  0  0  0
   24.2747   55.6072   46.9891 H   0  0  0  0  0
   24.4003   57.7741   48.1402 H   0  0  0  0  0
   26.4779   60.5426   52.1470 H   0  0  0  0  0
   27.7249   59.6300   53.0630 H   0  0  0  0  0
   25.3889   59.5546   54.4067 H   0  0  0  0  0
   31.8257   57.9377   50.4573 H   0  0  0  0  0
   32.9325   56.4607   45.3709 H   0  0  0  0  0
   31.3868   56.6387   46.1319 H   0  0  0  0  0
   30.0768   58.4543   45.6248 H   0  0  0  0  0
   30.8789   60.0119   45.2280 H   0  0  0  0  0
   31.1654   60.4031   47.4762 H   0  0  0  0  0
  1  3  1  0  0  0
  1  2  2  0  0  0
  3 11  1  0  0  0
  3  4  1  0  0  0
  4  5  1  0  0  0
  5 10  4  0  0  0
  5  6  4  0  0  0
  6  7  4  0  0  0
  7  8  4  0  0  0
  9  8  4  0  0  0
 10  9  4  0  0  0
 11 12  1  0  0  0
 15 14  1  0  0  0
 14 17  1  0  0  0
 14 13  1  0  0  0
 15 16  2  0  0  0
 21 18  1  0  0  0
 18 20  2  0  0  0
 18 19  1  0  0  0
 22 21  1  0  0  0
 13  1  1  0  0  0
 22 15  1  0  0  0
 13 23  1  0  0  0
 14 24  1  0  0  0
 17 25  1  0  0  0
 17 26  1  0  0  0
  3 27  1  0  0  0
  4 28  1  0  0  0
  4 29  1  0  0  0
  6 30  1  0  0  0
  7 31  1  0  0  0
  8 32  1  0  0  0
  9 33  1  0  0  0
 10 34  1  0  0  0
 11 35  1  0  0  0
 11 36  1  0  0  0
 12 37  1  0  0  0
 17 38  1  0  0  0
 19 39  1  0  0  0
 19 40  1  0  0  0
 21 41  1  0  0  0
 21 42  1  0  0  0
 22 43  1  0  0  0
M  END
$$$$
