### 
### Created by X-TOOL on Tue Oct 25 02:06:16 2005
### 

@<TRIPOS>MOLECULE
4tim_ligand
   15    14     1     0     0
SMALL
GAST_HUCK


@<TRIPOS>ATOM
      1 H61        45.5009   15.8026  -10.9179 H         1 SUB1        0.089
      2 H71        47.6230   13.9588  -11.3292 H         1 SUB1        0.062
      3 H72        45.8607   13.6148  -11.2755 H         1 SUB1        0.062
      4 H111       46.1060   13.3546   -8.9763 H         1 SUB1        0.210
      5 C1         46.2150   15.5080   -8.8920 C.2       1 SUB1        0.063
      6 C2         46.4340   15.5020  -10.4190 C.3       1 SUB1        0.140
      7 C3         46.7110   14.0360  -10.7190 C.3       1 SUB1        0.086
      8 P          47.6070   16.8890  -12.4740 P.3       1 SUB1        0.209
      9 O11        45.0640   15.2040   -8.4780 O.co2     1 SUB1       -0.563
     10 O12        47.2080   15.7070   -8.1290 O.co2     1 SUB1       -0.563
     11 O31        46.8930   13.2930   -9.5050 O.3       1 SUB1       -0.389
     12 O1P        47.4740   16.4110  -10.8800 O.3       1 SUB1       -0.300
     13 O2P        46.7530   15.8980  -13.2700 O.co2     1 SUB1       -0.535
     14 O3P        49.0950   16.8860  -12.8250 O.co2     1 SUB1       -0.535
     15 O4P        47.0360   18.2980  -12.6070 O.co2     1 SUB1       -0.535
@<TRIPOS>BOND
     1    6    1 1  
     2    7    2 1  
     3    7    3 1  
     4   11    4 1  
     5    6    5 1  
     6    5    9 2  
     7    5   10 2  
     8    6    7 1  
     9   12    6 1  
    10    7   11 1  
    11    8   15 2  
    12    8   14 2  
    13    8   13 2  
    14   12    8 1  
@<TRIPOS>SUBSTRUCTURE
     1 SUB1        1 GROUP

