### 
### Created by X-TOOL on Sun Jun  3 12:17:38 2007
### 

@<TRIPOS>MOLECULE
2f81_ligand
   75    78     1     0     0
SMALL
GAST_HUCK


@<TRIPOS>ATOM
      1 N1          8.1990   57.2630   14.1130 N.pl3     1 SUB1       -0.337
      2 C2          8.6730   58.4230   14.5710 C.ar      1 SUB1        0.035
      3 C3         10.0100   58.6630   14.2710 C.ar      1 SUB1       -0.043
      4 C4         10.5810   59.8330   14.7070 C.ar      1 SUB1       -0.047
      5 C5          9.7660   60.7150   15.4280 C.ar      1 SUB1        0.095
      6 C6          8.4290   60.4810   15.7340 C.ar      1 SUB1       -0.047
      7 C7          7.8370   59.2820   15.2920 C.ar      1 SUB1       -0.043
      8 S8         10.6440   62.2180   15.9530 S.o2      1 SUB1        0.065
      9 O9         11.8530   62.4980   15.0290 O.2       1 SUB1       -0.152
     10 O10         9.6620   63.3930   16.1790 O.2       1 SUB1       -0.152
     11 N11        11.3060   61.8570   17.5900 N.am      1 SUB1       -0.233
     12 C12        10.2860   61.5940   18.6410 C.3       1 SUB1        0.032
     13 C13        10.7920   62.1880   19.9860 C.3       1 SUB1       -0.030
     14 C14        10.7790   63.6990   19.8520 C.3       1 SUB1       -0.061
     15 C15         9.8740   61.7390   21.0950 C.3       1 SUB1       -0.061
     16 C16        12.6140   61.1770   17.5660 C.3       1 SUB1        0.058
     17 C17        13.7530   62.0970   18.1130 C.3       1 SUB1        0.097
     18 O18        14.9180   61.2810   18.3050 O.3       1 SUB1       -0.388
     19 C19        14.1140   63.2160   17.0780 C.3       1 SUB1        0.081
     20 N20        14.9710   64.1310   17.7720 N.am      1 SUB1       -0.255
     21 C21        14.6300   65.3880   18.1050 C.2       1 SUB1        0.320
     22 O22        13.5360   65.9490   17.8240 O.2       1 SUB1       -0.377
     23 O23        15.7420   65.9160   18.8150 O.3       1 SUB1       -0.258
     24 C24        15.6310   67.3850   19.0220 C.3       1 SUB1        0.119
     25 C25        16.2760   67.5730   20.4170 C.3       1 SUB1        0.082
     26 O26        17.7030   67.4920   20.2200 O.3       1 SUB1       -0.348
     27 C27        17.9450   67.9230   18.8900 C.3       1 SUB1        0.165
     28 O28        18.8550   67.0570   18.1820 O.3       1 SUB1       -0.351
     29 C29        18.0780   66.5450   17.1070 C.3       1 SUB1        0.051
     30 C30        17.0330   67.6250   16.7630 C.3       1 SUB1       -0.019
     31 C31        16.6820   68.1000   18.1650 C.3       1 SUB1        0.045
     32 C32        14.8240   62.7100   15.7830 C.3       1 SUB1        0.006
     33 C33        16.5910   64.3280   14.7970 C.ar      1 SUB1       -0.060
     34 C34        16.9590   65.4490   13.9880 C.ar      1 SUB1       -0.069
     35 C35        15.9410   66.1220   13.3210 C.ar      1 SUB1       -0.069
     36 C36        14.6090   65.7340   13.4210 C.ar      1 SUB1       -0.069
     37 C37        14.2890   64.6420   14.2180 C.ar      1 SUB1       -0.060
     38 C38        15.2590   63.9200   14.9130 C.ar      1 SUB1       -0.041
     39 H           8.8079   56.6345   13.5890 H         1 SUB1        0.172
     40 H           7.2277   57.0047   14.2869 H         1 SUB1        0.172
     41 H          10.5918   57.9378   13.7020 H         1 SUB1        0.052
     42 H          11.6256   60.0659   14.5006 H         1 SUB1        0.060
     43 H           7.8523   61.2099   16.3035 H         1 SUB1        0.060
     44 H           6.7947   59.0391   15.4984 H         1 SUB1        0.052
     45 H          10.1303   60.5203   18.7456 H         1 SUB1        0.048
     46 H           9.3399   62.0587   18.3635 H         1 SUB1        0.048
     47 H          11.8014   61.8493   20.2193 H         1 SUB1        0.031
     48 H          11.4351   63.9956   19.0336 H         1 SUB1        0.023
     49 H           9.7631   64.0354   19.6451 H         1 SUB1        0.023
     50 H          11.1295   64.1479   20.7813 H         1 SUB1        0.023
     51 H           8.8627   62.0920   20.8931 H         1 SUB1        0.023
     52 H           9.8763   60.6503   21.1485 H         1 SUB1        0.023
     53 H          10.2218   62.1513   22.0422 H         1 SUB1        0.023
     54 H          12.8477   60.9177   16.5334 H         1 SUB1        0.050
     55 H          12.5530   60.2920   18.1994 H         1 SUB1        0.050
     56 H          13.4217   62.5651   19.0400 H         1 SUB1        0.063
     57 H          15.6351   61.8232   18.6416 H         1 SUB1        0.210
     58 H          13.1874   63.6666   16.7225 H         1 SUB1        0.060
     59 H          15.9028   63.8066   18.0308 H         1 SUB1        0.187
     60 H          14.6124   67.7310   18.8464 H         1 SUB1        0.068
     61 H          15.9331   66.8074   21.1130 H         1 SUB1        0.059
     62 H          15.9949   68.5321   20.8519 H         1 SUB1        0.059
     63 H          18.4402   68.8922   18.9492 H         1 SUB1        0.091
     64 H          17.5928   65.6105   17.3887 H         1 SUB1        0.056
     65 H          18.7063   66.3234   16.2443 H         1 SUB1        0.056
     66 H          16.1844   67.2648   16.1814 H         1 SUB1        0.029
     67 H          17.3942   68.4085   16.0968 H         1 SUB1        0.029
     68 H          16.2373   69.0847   18.0208 H         1 SUB1        0.038
     69 H          14.1337   62.0873   15.2140 H         1 SUB1        0.045
     70 H          15.7047   62.1299   16.0587 H         1 SUB1        0.045
     71 H          17.3655   63.7805   15.3342 H         1 SUB1        0.056
     72 H          17.9986   65.7639   13.8977 H         1 SUB1        0.060
     73 H          16.1951   66.9810   12.7000 H         1 SUB1        0.056
     74 H          13.8309   66.2765   12.8841 H         1 SUB1        0.060
     75 H          13.2453   64.3395   14.3030 H         1 SUB1        0.056
@<TRIPOS>BOND
     1    2    1 1  
     2    3    2 ar 
     3    7    2 ar 
     4    4    3 ar 
     5    5    4 ar 
     6    5    6 ar 
     7    8    5 1  
     8    6    7 ar 
     9    8    9 2  
    10    8   10 2  
    11   11    8 1  
    12   11   12 1  
    13   16   11 1  
    14   12   13 1  
    15   13   14 1  
    16   13   15 1  
    17   17   16 1  
    18   17   18 1  
    19   19   17 1  
    20   19   20 1  
    21   32   19 1  
    22   20   21 am 
    23   21   22 2  
    24   21   23 1  
    25   23   24 1  
    26   24   25 1  
    27   24   31 1  
    28   25   26 1  
    29   27   26 1  
    30   27   28 1  
    31   31   27 1  
    32   29   28 1  
    33   30   29 1  
    34   31   30 1  
    35   38   32 1  
    36   33   34 ar 
    37   33   38 ar 
    38   34   35 ar 
    39   35   36 ar 
    40   36   37 ar 
    41   37   38 ar 
    42    1   39 1  
    43    1   40 1  
    44    3   41 1  
    45    4   42 1  
    46    6   43 1  
    47    7   44 1  
    48   12   45 1  
    49   12   46 1  
    50   13   47 1  
    51   14   48 1  
    52   14   49 1  
    53   14   50 1  
    54   15   51 1  
    55   15   52 1  
    56   15   53 1  
    57   16   54 1  
    58   16   55 1  
    59   17   56 1  
    60   18   57 1  
    61   19   58 1  
    62   20   59 1  
    63   24   60 1  
    64   25   61 1  
    65   25   62 1  
    66   27   63 1  
    67   29   64 1  
    68   29   65 1  
    69   30   66 1  
    70   30   67 1  
    71   31   68 1  
    72   32   69 1  
    73   32   70 1  
    74   33   71 1  
    75   34   72 1  
    76   35   73 1  
    77   36   74 1  
    78   37   75 1  
@<TRIPOS>SUBSTRUCTURE
     1 SUB1        1 GROUP

