2f81_ligand
  -I-interpret- 

 75 78  0  0  0  0  0  0  0  0999 V2000
    8.1990   57.2630   14.1130 N   0  0  0  0  0
    8.6730   58.4230   14.5710 C   0  0  0  0  0
   10.0100   58.6630   14.2710 C   0  0  0  0  0
   10.5810   59.8330   14.7070 C   0  0  0  0  0
    9.7660   60.7150   15.4280 C   0  0  0  0  0
    8.4290   60.4810   15.7340 C   0  0  0  0  0
    7.8370   59.2820   15.2920 C   0  0  0  0  0
   10.6440   62.2180   15.9530 S   0  0  0  0  0
   11.8530   62.4980   15.0290 O   0  0  0  0  0
    9.6620   63.3930   16.1790 O   0  0  0  0  0
   11.3060   61.8570   17.5900 N   0  0  0  0  0
   10.2860   61.5940   18.6410 C   0  0  0  0  0
   10.7920   62.1880   19.9860 C   0  0  0  0  0
   10.7790   63.6990   19.8520 C   0  0  0  0  0
    9.8740   61.7390   21.0950 C   0  0  0  0  0
   12.6140   61.1770   17.5660 C   0  0  0  0  0
   13.7530   62.0970   18.1130 C   0  0  0  0  0
   14.9180   61.2810   18.3050 O   0  0  0  0  0
   14.1140   63.2160   17.0780 C   0  0  0  0  0
   14.9710   64.1310   17.7720 N   0  0  0  0  0
   14.6300   65.3880   18.1050 C   0  0  0  0  0
   13.5360   65.9490   17.8240 O   0  0  0  0  0
   15.7420   65.9160   18.8150 O   0  0  0  0  0
   15.6310   67.3850   19.0220 C   0  0  0  0  0
   16.2760   67.5730   20.4170 C   0  0  0  0  0
   17.7030   67.4920   20.2200 O   0  0  0  0  0
   17.9450   67.9230   18.8900 C   0  0  0  0  0
   18.8550   67.0570   18.1820 O   0  0  0  0  0
   18.0780   66.5450   17.1070 C   0  0  0  0  0
   17.0330   67.6250   16.7630 C   0  0  0  0  0
   16.6820   68.1000   18.1650 C   0  0  0  0  0
   14.8240   62.7100   15.7830 C   0  0  0  0  0
   16.5910   64.3280   14.7970 C   0  0  0  0  0
   16.9590   65.4490   13.9880 C   0  0  0  0  0
   15.9410   66.1220   13.3210 C   0  0  0  0  0
   14.6090   65.7340   13.4210 C   0  0  0  0  0
   14.2890   64.6420   14.2180 C   0  0  0  0  0
   15.2590   63.9200   14.9130 C   0  0  0  0  0
    8.8079   56.6345   13.5890 H   0  0  0  0  0
    7.2277   57.0047   14.2869 H   0  0  0  0  0
   10.5918   57.9378   13.7020 H   0  0  0  0  0
   11.6256   60.0659   14.5006 H   0  0  0  0  0
    7.8523   61.2099   16.3035 H   0  0  0  0  0
    6.7947   59.0391   15.4984 H   0  0  0  0  0
   10.1303   60.5203   18.7456 H   0  0  0  0  0
    9.3399   62.0587   18.3635 H   0  0  0  0  0
   11.8014   61.8493   20.2193 H   0  0  0  0  0
   11.4351   63.9956   19.0336 H   0  0  0  0  0
    9.7631   64.0354   19.6451 H   0  0  0  0  0
   11.1295   64.1479   20.7813 H   0  0  0  0  0
    8.8627   62.0920   20.8931 H   0  0  0  0  0
    9.8763   60.6503   21.1485 H   0  0  0  0  0
   10.2218   62.1513   22.0422 H   0  0  0  0  0
   12.8477   60.9177   16.5334 H   0  0  0  0  0
   12.5530   60.2920   18.1994 H   0  0  0  0  0
   13.4217   62.5651   19.0400 H   0  0  0  0  0
   15.6351   61.8232   18.6416 H   0  0  0  0  0
   13.1874   63.6666   16.7225 H   0  0  0  0  0
   15.9028   63.8066   18.0308 H   0  0  0  0  0
   14.6124   67.7310   18.8464 H   0  0  0  0  0
   15.9331   66.8074   21.1130 H   0  0  0  0  0
   15.9949   68.5321   20.8519 H   0  0  0  0  0
   18.4402   68.8922   18.9492 H   0  0  0  0  0
   17.5928   65.6105   17.3887 H   0  0  0  0  0
   18.7063   66.3234   16.2443 H   0  0  0  0  0
   16.1844   67.2648   16.1814 H   0  0  0  0  0
   17.3942   68.4085   16.0968 H   0  0  0  0  0
   16.2373   69.0847   18.0208 H   0  0  0  0  0
   14.1337   62.0873   15.2140 H   0  0  0  0  0
   15.7047   62.1299   16.0587 H   0  0  0  0  0
   17.3655   63.7805   15.3342 H   0  0  0  0  0
   17.9986   65.7639   13.8977 H   0  0  0  0  0
   16.1951   66.9810   12.7000 H   0  0  0  0  0
   13.8309   66.2765   12.8841 H   0  0  0  0  0
   13.2453   64.3395   14.3030 H   0  0  0  0  0
  2  1  1  0  0  0
  3  2  4  0  0  0
  7  2  4  0  0  0
  4  3  4  0  0  0
  5  4  4  0  0  0
  5  6  4  0  0  0
  8  5  1  0  0  0
  6  7  4  0  0  0
  8  9  2  0  0  0
  8 10  2  0  0  0
 11  8  1  0  0  0
 11 12  1  0  0  0
 16 11  1  0  0  0
 12 13  1  0  0  0
 13 14  1  0  0  0
 13 15  1  0  0  0
 17 16  1  0  0  0
 17 18  1  0  0  0
 19 17  1  0  0  0
 19 20  1  0  0  0
 32 19  1  0  0  0
 20 21  1  0  0  0
 21 22  2  0  0  0
 21 23  1  0  0  0
 23 24  1  0  0  0
 24 25  1  0  0  0
 24 31  1  0  0  0
 25 26  1  0  0  0
 27 26  1  0  0  0
 27 28  1  0  0  0
 31 27  1  0  0  0
 29 28  1  0  0  0
 30 29  1  0  0  0
 31 30  1  0  0  0
 38 32  1  0  0  0
 33 34  4  0  0  0
 33 38  4  0  0  0
 34 35  4  0  0  0
 35 36  4  0  0  0
 36 37  4  0  0  0
 37 38  4  0  0  0
  1 39  1  0  0  0
  1 40  1  0  0  0
  3 41  1  0  0  0
  4 42  1  0  0  0
  6 43  1  0  0  0
  7 44  1  0  0  0
 12 45  1  0  0  0
 12 46  1  0  0  0
 13 47  1  0  0  0
 14 48  1  0  0  0
 14 49  1  0  0  0
 14 50  1  0  0  0
 15 51  1  0  0  0
 15 52  1  0  0  0
 15 53  1  0  0  0
 16 54  1  0  0  0
 16 55  1  0  0  0
 17 56  1  0  0  0
 18 57  1  0  0  0
 19 58  1  0  0  0
 20 59  1  0  0  0
 24 60  1  0  0  0
 25 61  1  0  0  0
 25 62  1  0  0  0
 27 63  1  0  0  0
 29 64  1  0  0  0
 29 65  1  0  0  0
 30 66  1  0  0  0
 30 67  1  0  0  0
 31 68  1  0  0  0
 32 69  1  0  0  0
 32 70  1  0  0  0
 33 71  1  0  0  0
 34 72  1  0  0  0
 35 73  1  0  0  0
 36 74  1  0  0  0
 37 75  1  0  0  0
M  END
$$$$
