1oba_ligand
  -I-interpret- 

 21 20  0  0  0  0  0  0  0  0999 V2000
   32.9120   23.1170   13.1670 C   0  0  0  0  0
   34.2250   22.2810   12.8630 C   0  0  0  0  0
   34.5760   19.9460   12.0830 C   0  0  0  0  0
   33.0540   21.3090   10.8190 C   0  0  0  0  0
   35.4380   21.7510   10.7760 C   0  0  0  0  0
   32.0240   22.2520   13.8230 O   0  0  0  0  0
   34.3170   21.3270   11.6480 N   0  3  0  0  0
   33.1426   23.9720   13.8195 H   0  0  0  0  0
   32.4563   23.4718   12.2309 H   0  0  0  0  0
   35.0407   23.0077   12.7346 H   0  0  0  0  0
   34.4150   21.6564   13.7482 H   0  0  0  0  0
   34.6352   19.2966   11.1971 H   0  0  0  0  0
   35.5305   19.8970   12.6274 H   0  0  0  0  0
   33.7573   19.5965   12.7291 H   0  0  0  0  0
   32.8345   22.3317   10.4786 H   0  0  0  0  0
   33.1909   20.6609    9.9409 H   0  0  0  0  0
   32.2120   20.9451   11.4261 H   0  0  0  0  0
   35.2603   22.7836   10.4409 H   0  0  0  0  0
   36.3838   21.7141   11.3364 H   0  0  0  0  0
   35.4977   21.0941    9.8957 H   0  0  0  0  0
   31.2205   22.7174   14.0236 H   0  0  0  0  0
  1  2  1  0  0  0
  1  6  1  0  0  0
  2  7  1  0  0  0
  7  5  1  0  0  0
  7  4  1  0  0  0
  7  3  1  0  0  0
  1  8  1  0  0  0
  1  9  1  0  0  0
  2 10  1  0  0  0
  2 11  1  0  0  0
  3 12  1  0  0  0
  3 13  1  0  0  0
  3 14  1  0  0  0
  4 15  1  0  0  0
  4 16  1  0  0  0
  4 17  1  0  0  0
  5 18  1  0  0  0
  5 19  1  0  0  0
  5 20  1  0  0  0
  6 21  1  0  0  0
M  END
$$$$
