### 
### Created by X-TOOL on Tue Oct 25 02:23:26 2005
### 

@<TRIPOS>MOLECULE
1oba_ligand
   21    20     1     0     0
SMALL
GAST_HUCK


@<TRIPOS>ATOM
      1 C4         32.9120   23.1170   13.1670 C.3       1 SUB1        0.084
      2 C5         34.2250   22.2810   12.8630 C.3       1 SUB1       -0.007
      3 C6         34.5760   19.9460   12.0830 C.3       1 SUB1       -0.042
      4 C7         33.0540   21.3090   10.8190 C.3       1 SUB1       -0.042
      5 C8         35.4380   21.7510   10.7760 C.3       1 SUB1       -0.042
      6 O6         32.0240   22.2520   13.8230 O.3       1 SUB1       -0.390
      7 N1         34.3170   21.3270   11.6480 N.4       1 SUB1        0.238
      8 H11        33.1426   23.9720   13.8195 H         1 SUB1        0.061
      9 H12        32.4563   23.4718   12.2309 H         1 SUB1        0.061
     10 H21        35.0407   23.0077   12.7346 H         1 SUB1        0.084
     11 H22        34.4150   21.6564   13.7482 H         1 SUB1        0.084
     12 H31        34.6352   19.2966   11.1971 H         1 SUB1        0.078
     13 H32        35.5305   19.8970   12.6274 H         1 SUB1        0.078
     14 H33        33.7573   19.5965   12.7291 H         1 SUB1        0.078
     15 H41        32.8345   22.3317   10.4786 H         1 SUB1        0.078
     16 H42        33.1909   20.6609    9.9409 H         1 SUB1        0.078
     17 H43        32.2120   20.9451   11.4261 H         1 SUB1        0.078
     18 H51        35.2603   22.7836   10.4409 H         1 SUB1        0.078
     19 H52        36.3838   21.7141   11.3364 H         1 SUB1        0.078
     20 H53        35.4977   21.0941    9.8957 H         1 SUB1        0.078
     21 H61        31.2205   22.7174   14.0236 H         1 SUB1        0.210
@<TRIPOS>BOND
     1    1    2 1  
     2    1    6 1  
     3    2    7 1  
     4    7    5 1  
     5    7    4 1  
     6    7    3 1  
     7    1    8 1  
     8    1    9 1  
     9    2   10 1  
    10    2   11 1  
    11    3   12 1  
    12    3   13 1  
    13    3   14 1  
    14    4   15 1  
    15    4   16 1  
    16    4   17 1  
    17    5   18 1  
    18    5   19 1  
    19    5   20 1  
    20    6   21 1  
@<TRIPOS>SUBSTRUCTURE
     1 SUB1        1 GROUP

