### 
### Created by X-TOOL on Tue Oct 25 02:32:21 2005
### 

@<TRIPOS>MOLECULE
1pbk_ligand
  144   147     1     0     0
SMALL
GAST_HUCK


@<TRIPOS>ATOM
      1 C1         15.6590   25.8130   26.1970 C.2       1 SUB1        0.260
      2 O1         16.7240   24.8830   26.4370 O.3       1 SUB1       -0.269
      3 O2         14.5120   25.3960   26.1200 O.2       1 SUB1       -0.368
      4 C2         15.8700   27.3020   26.0400 C.3       1 SUB1        0.146
      5 C3         15.2480   27.7640   24.7380 C.3       1 SUB1       -0.011
      6 C4         16.0780   27.4440   23.5060 C.3       1 SUB1       -0.047
      7 C5         17.5260   27.9050   23.7140 C.3       1 SUB1       -0.032
      8 C6         18.0920   27.2770   24.9830 C.3       1 SUB1        0.038
      9 N7         17.2610   27.7670   26.0830 N.am      1 SUB1       -0.240
     10 C8         17.7790   28.3080   27.2080 C.2       1 SUB1        0.278
     11 O3         17.0480   28.5800   28.1730 O.2       1 SUB1       -0.361
     12 C9         19.1080   28.7520   27.2870 C.2       1 SUB1        0.293
     13 O4         19.3830   29.8040   26.7010 O.2       1 SUB1       -0.285
     14 C10        20.2250   27.9190   27.9440 C.3       1 SUB1        0.251
     15 O5         20.7010   27.1770   26.8340 O.3       1 SUB1       -0.344
     16 O6         21.2210   28.7270   28.5550 O.3       1 SUB1       -0.364
     17 C11        19.7080   27.0300   29.0780 C.3       1 SUB1        0.017
     18 C12        20.6390   25.8680   29.3280 C.3       1 SUB1       -0.044
     19 C13        21.0510   25.1430   28.0440 C.3       1 SUB1       -0.026
     20 C14        21.5810   26.0930   26.9710 C.3       1 SUB1        0.065
     21 C15        21.6540   25.3910   25.6260 C.3       1 SUB1        0.014
     22 C16        22.8310   24.4140   25.5050 C.3       1 SUB1        0.102
     23 O7         23.9340   25.2050   25.2720 O.3       1 SUB1       -0.362
     24 C17        22.6600   23.4200   24.3650 C.2       1 SUB1       -0.025
     25 C18        22.3750   22.1630   24.6600 C.2       1 SUB1       -0.078
     26 C19        22.1400   21.0950   23.6790 C.2       1 SUB1       -0.100
     27 C20        21.8680   19.8560   24.0780 C.2       1 SUB1       -0.100
     28 C21        21.5240   18.8640   23.0580 C.2       1 SUB1       -0.093
     29 C22        21.1810   17.6330   23.3730 C.2       1 SUB1       -0.086
     30 C23        20.7160   16.5740   22.3740 C.3       1 SUB1       -0.017
     31 C24        19.2870   16.2110   22.7150 C.3       1 SUB1       -0.022
     32 C25        18.2660   17.3200   22.7380 C.3       1 SUB1        0.035
     33 C26        16.9950   16.7810   23.3800 C.2       1 SUB1        0.141
     34 O8         16.2070   16.0930   22.7320 O.2       1 SUB1       -0.388
     35 C27        16.7550   17.0760   24.8580 C.3       1 SUB1        0.165
     36 O9         15.6700   16.3050   25.2300 O.3       1 SUB1       -0.356
     37 C28        16.3280   18.5260   25.1920 C.3       1 SUB1        0.123
     38 O10        15.2060   18.8110   24.3600 O.3       1 SUB1       -0.375
     39 C29        17.4210   19.6000   25.0150 C.2       1 SUB1       -0.048
     40 C30        17.3780   20.5060   24.0270 C.2       1 SUB1       -0.086
     41 C31        18.3520   21.6520   23.8170 C.3       1 SUB1        0.036
     42 C32        17.8390   22.9330   24.5010 C.2       1 SUB1        0.114
     43 O11        17.4220   23.9100   23.8720 O.2       1 SUB1       -0.390
     44 C33        17.8620   22.9860   26.0150 C.3       1 SUB1        0.053
     45 C34        16.5790   23.5180   26.6020 C.3       1 SUB1        0.106
     46 C35        16.3650   23.2880   28.1120 C.3       1 SUB1       -0.011
     47 C36        15.8670   21.8950   28.4260 C.3       1 SUB1       -0.045
     48 C37        14.4120   21.5040   28.3120 C.3       1 SUB1       -0.038
     49 C38        14.2740   19.9860   28.2690 C.3       1 SUB1       -0.021
     50 C39        12.8300   19.5430   28.0340 C.3       1 SUB1        0.084
     51 O12        12.7320   18.1790   28.1680 O.3       1 SUB1       -0.377
     52 C40        11.8320   20.1280   29.0430 C.3       1 SUB1        0.081
     53 O13        10.5710   19.9000   28.4180 O.3       1 SUB1       -0.389
     54 C41        12.0550   21.6320   29.3210 C.3       1 SUB1       -0.024
     55 C42        13.5350   22.0380   29.4580 C.3       1 SUB1       -0.048
     56 C43        19.4920   27.7870   30.3880 C.3       1 SUB1       -0.058
     57 C44        22.8490   23.9510   22.9370 C.3       1 SUB1       -0.020
     58 C45        21.4920   15.2950   22.5320 C.3       1 SUB1       -0.053
     59 C46        17.9600   17.8530   21.3370 C.3       1 SUB1       -0.046
     60 C47        18.5380   19.5120   26.0500 C.3       1 SUB1       -0.037
     61 C48        18.4990   21.8900   22.3260 C.3       1 SUB1       -0.043
     62 C49        17.6380   23.4870   28.9040 C.3       1 SUB1       -0.060
     63 C50        25.1480   24.7410   25.7220 C.3       1 SUB1        0.041
     64 C51        16.0680   15.3510   26.1250 C.3       1 SUB1        0.040
     65 C52        12.6250   17.5260   26.9490 C.3       1 SUB1        0.037
     66 H41        15.3402   27.7899   26.8714 H         1 SUB1        0.082
     67 H51        15.1108   28.8542   24.7884 H         1 SUB1        0.031
     68 H52        14.2682   27.2757   24.6308 H         1 SUB1        0.031
     69 H61        15.6521   27.9634   22.6349 H         1 SUB1        0.027
     70 H62        16.0634   26.3585   23.3289 H         1 SUB1        0.027
     71 H71        17.5504   29.0008   23.8069 H         1 SUB1        0.029
     72 H72        18.1348   27.5965   22.8513 H         1 SUB1        0.029
     73 H81        18.0380   26.1800   24.9230 H         1 SUB1        0.053
     74 H82        19.1379   27.5853   25.1279 H         1 SUB1        0.053
     75 H161       21.5566   29.3485   27.9197 H         1 SUB1        0.210
     76 H171       18.7352   26.6269   28.7601 H         1 SUB1        0.034
     77 H181       20.1325   25.1492   29.9890 H         1 SUB1        0.027
     78 H182       21.5456   26.2458   29.8232 H         1 SUB1        0.027
     79 H191       21.8385   24.4150   28.2888 H         1 SUB1        0.029
     80 H192       20.1742   24.6137   27.6427 H         1 SUB1        0.029
     81 H201       22.5800   26.4516   27.2597 H         1 SUB1        0.060
     82 H211       20.7198   24.8301   25.4756 H         1 SUB1        0.035
     83 H212       21.7539   26.1545   24.8405 H         1 SUB1        0.035
     84 H221       22.9504   23.8578   26.4465 H         1 SUB1        0.083
     85 H251       22.3092   21.8983   25.7143 H         1 SUB1        0.030
     86 H261       22.1890   21.3202   22.6147 H         1 SUB1        0.048
     87 H271       21.9002   19.5872   25.1328 H         1 SUB1        0.038
     88 H281       21.5527   19.1529   22.0084 H         1 SUB1        0.040
     89 H291       21.2323   17.3481   24.4228 H         1 SUB1        0.058
     90 H301       20.8004   16.9574   21.3464 H         1 SUB1        0.047
     91 H311       18.9508   15.4709   21.9739 H         1 SUB1        0.032
     92 H312       19.2949   15.7516   23.7144 H         1 SUB1        0.032
     93 H321       18.6565   18.1484   23.3474 H         1 SUB1        0.053
     94 H351       17.6556   16.8138   25.4326 H         1 SUB1        0.088
     95 H371       16.0113   18.5542   26.2450 H         1 SUB1        0.080
     96 H381       14.5442   18.1404   24.4820 H         1 SUB1        0.213
     97 H401       16.5670   20.4107   23.3065 H         1 SUB1        0.027
     98 H411       19.3291   21.3827   24.2444 H         1 SUB1        0.060
     99 H441       18.0290   21.9690   26.3995 H         1 SUB1        0.052
    100 H442       18.6897   23.6380   26.3310 H         1 SUB1        0.052
    101 H451       15.7165   23.1204   26.0471 H         1 SUB1        0.068
    102 H461       15.6157   24.0157   28.4570 H         1 SUB1        0.033
    103 H471       16.1550   21.6964   29.4689 H         1 SUB1        0.027
    104 H472       16.4179   21.2167   27.7579 H         1 SUB1        0.027
    105 H481       14.0285   21.9196   27.3685 H         1 SUB1        0.030
    106 H491       14.6199   19.5717   29.2275 H         1 SUB1        0.029
    107 H492       14.9010   19.5964   27.4535 H         1 SUB1        0.029
    108 H501       12.5359   19.8436   27.0176 H         1 SUB1        0.062
    109 H521       11.8945   19.5831   29.9965 H         1 SUB1        0.062
    110 H531       10.4610   18.9698   28.2593 H         1 SUB1        0.210
    111 H541       11.5389   21.8896   30.2576 H         1 SUB1        0.029
    112 H542       11.6160   22.2048   28.4908 H         1 SUB1        0.029
    113 H551       13.5982   23.1361   29.4657 H         1 SUB1        0.027
    114 H552       13.9208   21.6418   30.4089 H         1 SUB1        0.027
    115 H561       18.8142   28.6356   30.2136 H         1 SUB1        0.023
    116 H562       20.4579   28.1596   30.7598 H         1 SUB1        0.023
    117 H563       19.0484   27.1107   31.1335 H         1 SUB1        0.023
    118 H571       22.6976   23.1321   22.2183 H         1 SUB1        0.046
    119 H572       23.8673   24.3520   22.8267 H         1 SUB1        0.046
    120 H573       22.1175   24.7492   22.7428 H         1 SUB1        0.046
    121 H581       22.5514   15.4778   22.2993 H         1 SUB1        0.026
    122 H582       21.0913   14.5357   21.8444 H         1 SUB1        0.026
    123 H583       21.4008   14.9363   23.5679 H         1 SUB1        0.026
    124 H591       17.2127   18.6573   21.4058 H         1 SUB1        0.026
    125 H592       17.5650   17.0380   20.7128 H         1 SUB1        0.026
    126 H593       18.8822   18.2471   20.8851 H         1 SUB1        0.026
    127 H601       19.2763   20.3052   25.8610 H         1 SUB1        0.038
    128 H602       19.0283   18.5300   25.9778 H         1 SUB1        0.038
    129 H603       18.1150   19.6374   27.0576 H         1 SUB1        0.038
    130 H611       19.2022   22.7183   22.1545 H         1 SUB1        0.027
    131 H612       17.5190   22.1464   21.8972 H         1 SUB1        0.027
    132 H613       18.8824   20.9780   21.8451 H         1 SUB1        0.027
    133 H621       18.0392   24.4920   28.7067 H         1 SUB1        0.023
    134 H622       18.3786   22.7311   28.6038 H         1 SUB1        0.023
    135 H623       17.4221   23.3827   29.9775 H         1 SUB1        0.023
    136 H631       25.9345   25.4675   25.4698 H         1 SUB1        0.053
    137 H632       25.3724   23.7766   25.2429 H         1 SUB1        0.053
    138 H633       25.1081   24.6078   26.8132 H         1 SUB1        0.053
    139 H641       15.2020   14.7396   26.4186 H         1 SUB1        0.053
    140 H642       16.4919   15.8379   27.0157 H         1 SUB1        0.053
    141 H643       16.8303   14.7080   25.6608 H         1 SUB1        0.053
    142 H651       12.5501   16.4418   27.1192 H         1 SUB1        0.052
    143 H652       13.5146   17.7407   26.3387 H         1 SUB1        0.052
    144 H653       11.7255   17.8775   26.4224 H         1 SUB1        0.052
@<TRIPOS>BOND
     1    1    4 1  
     2    1    3 2  
     3    1    2 1  
     4    2   45 1  
     5   45   46 1  
     6   45   44 1  
     7   44   42 1  
     8   42   43 2  
     9   42   41 1  
    10   41   61 1  
    11   41   40 1  
    12   40   39 2  
    13   39   60 1  
    14   39   37 1  
    15   37   38 1  
    16   37   35 1  
    17   35   36 1  
    18   35   33 1  
    19   33   34 2  
    20   33   32 1  
    21   32   59 1  
    22   32   31 1  
    23   31   30 1  
    24   30   58 1  
    25   30   29 1  
    26   29   28 2  
    27   28   27 1  
    28   27   26 2  
    29   26   25 1  
    30   25   24 2  
    31   24   57 1  
    32   24   22 1  
    33   22   23 1  
    34   22   21 1  
    35   21   20 1  
    36   20   19 1  
    37   20   15 1  
    38   15   14 1  
    39   14   17 1  
    40   14   16 1  
    41   14   12 1  
    42   12   13 2  
    43   12   10 1  
    44   10   11 2  
    45   10    9 am 
    46    9    8 1  
    47    9    4 1  
    48    4    5 1  
    49    5    6 1  
    50    6    7 1  
    51    7    8 1  
    52   17   56 1  
    53   17   18 1  
    54   18   19 1  
    55   23   63 1  
    56   36   64 1  
    57   46   62 1  
    58   46   47 1  
    59   47   48 1  
    60   48   55 1  
    61   48   49 1  
    62   49   50 1  
    63   50   52 1  
    64   50   51 1  
    65   51   65 1  
    66   52   54 1  
    67   52   53 1  
    68   54   55 1  
    69    4   66 1  
    70    5   67 1  
    71    5   68 1  
    72    6   69 1  
    73    6   70 1  
    74    7   71 1  
    75    7   72 1  
    76    8   73 1  
    77    8   74 1  
    78   16   75 1  
    79   17   76 1  
    80   18   77 1  
    81   18   78 1  
    82   19   79 1  
    83   19   80 1  
    84   20   81 1  
    85   21   82 1  
    86   21   83 1  
    87   22   84 1  
    88   25   85 1  
    89   26   86 1  
    90   27   87 1  
    91   28   88 1  
    92   29   89 1  
    93   30   90 1  
    94   31   91 1  
    95   31   92 1  
    96   32   93 1  
    97   35   94 1  
    98   37   95 1  
    99   38   96 1  
   100   40   97 1  
   101   41   98 1  
   102   44   99 1  
   103   44  100 1  
   104   45  101 1  
   105   46  102 1  
   106   47  103 1  
   107   47  104 1  
   108   48  105 1  
   109   49  106 1  
   110   49  107 1  
   111   50  108 1  
   112   52  109 1  
   113   53  110 1  
   114   54  111 1  
   115   54  112 1  
   116   55  113 1  
   117   55  114 1  
   118   56  115 1  
   119   56  116 1  
   120   56  117 1  
   121   57  118 1  
   122   57  119 1  
   123   57  120 1  
   124   58  121 1  
   125   58  122 1  
   126   58  123 1  
   127   59  124 1  
   128   59  125 1  
   129   59  126 1  
   130   60  127 1  
   131   60  128 1  
   132   60  129 1  
   133   61  130 1  
   134   61  131 1  
   135   61  132 1  
   136   62  133 1  
   137   62  134 1  
   138   62  135 1  
   139   63  136 1  
   140   63  137 1  
   141   63  138 1  
   142   64  139 1  
   143   64  140 1  
   144   64  141 1  
   145   65  142 1  
   146   65  143 1  
   147   65  144 1  
@<TRIPOS>SUBSTRUCTURE
     1 SUB1        1 GROUP

