1pbk_ligand
  -I-interpret- 

144147  0  0  0  0  0  0  0  0999 V2000
   15.6590   25.8130   26.1970 C   0  0  0  0  0
   16.7240   24.8830   26.4370 O   0  0  0  0  0
   14.5120   25.3960   26.1200 O   0  0  0  0  0
   15.8700   27.3020   26.0400 C   0  0  0  0  0
   15.2480   27.7640   24.7380 C   0  0  0  0  0
   16.0780   27.4440   23.5060 C   0  0  0  0  0
   17.5260   27.9050   23.7140 C   0  0  0  0  0
   18.0920   27.2770   24.9830 C   0  0  0  0  0
   17.2610   27.7670   26.0830 N   0  0  0  0  0
   17.7790   28.3080   27.2080 C   0  0  0  0  0
   17.0480   28.5800   28.1730 O   0  0  0  0  0
   19.1080   28.7520   27.2870 C   0  0  0  0  0
   19.3830   29.8040   26.7010 O   0  0  0  0  0
   20.2250   27.9190   27.9440 C   0  0  0  0  0
   20.7010   27.1770   26.8340 O   0  0  0  0  0
   21.2210   28.7270   28.5550 O   0  0  0  0  0
   19.7080   27.0300   29.0780 C   0  0  0  0  0
   20.6390   25.8680   29.3280 C   0  0  0  0  0
   21.0510   25.1430   28.0440 C   0  0  0  0  0
   21.5810   26.0930   26.9710 C   0  0  0  0  0
   21.6540   25.3910   25.6260 C   0  0  0  0  0
   22.8310   24.4140   25.5050 C   0  0  0  0  0
   23.9340   25.2050   25.2720 O   0  0  0  0  0
   22.6600   23.4200   24.3650 C   0  0  0  0  0
   22.3750   22.1630   24.6600 C   0  0  0  0  0
   22.1400   21.0950   23.6790 C   0  0  0  0  0
   21.8680   19.8560   24.0780 C   0  0  0  0  0
   21.5240   18.8640   23.0580 C   0  0  0  0  0
   21.1810   17.6330   23.3730 C   0  0  0  0  0
   20.7160   16.5740   22.3740 C   0  0  0  0  0
   19.2870   16.2110   22.7150 C   0  0  0  0  0
   18.2660   17.3200   22.7380 C   0  0  0  0  0
   16.9950   16.7810   23.3800 C   0  0  0  0  0
   16.2070   16.0930   22.7320 O   0  0  0  0  0
   16.7550   17.0760   24.8580 C   0  0  0  0  0
   15.6700   16.3050   25.2300 O   0  0  0  0  0
   16.3280   18.5260   25.1920 C   0  0  0  0  0
   15.2060   18.8110   24.3600 O   0  0  0  0  0
   17.4210   19.6000   25.0150 C   0  0  0  0  0
   17.3780   20.5060   24.0270 C   0  0  0  0  0
   18.3520   21.6520   23.8170 C   0  0  0  0  0
   17.8390   22.9330   24.5010 C   0  0  0  0  0
   17.4220   23.9100   23.8720 O   0  0  0  0  0
   17.8620   22.9860   26.0150 C   0  0  0  0  0
   16.5790   23.5180   26.6020 C   0  0  0  0  0
   16.3650   23.2880   28.1120 C   0  0  0  0  0
   15.8670   21.8950   28.4260 C   0  0  0  0  0
   14.4120   21.5040   28.3120 C   0  0  0  0  0
   14.2740   19.9860   28.2690 C   0  0  0  0  0
   12.8300   19.5430   28.0340 C   0  0  0  0  0
   12.7320   18.1790   28.1680 O   0  0  0  0  0
   11.8320   20.1280   29.0430 C   0  0  0  0  0
   10.5710   19.9000   28.4180 O   0  0  0  0  0
   12.0550   21.6320   29.3210 C   0  0  0  0  0
   13.5350   22.0380   29.4580 C   0  0  0  0  0
   19.4920   27.7870   30.3880 C   0  0  0  0  0
   22.8490   23.9510   22.9370 C   0  0  0  0  0
   21.4920   15.2950   22.5320 C   0  0  0  0  0
   17.9600   17.8530   21.3370 C   0  0  0  0  0
   18.5380   19.5120   26.0500 C   0  0  0  0  0
   18.4990   21.8900   22.3260 C   0  0  0  0  0
   17.6380   23.4870   28.9040 C   0  0  0  0  0
   25.1480   24.7410   25.7220 C   0  0  0  0  0
   16.0680   15.3510   26.1250 C   0  0  0  0  0
   12.6250   17.5260   26.9490 C   0  0  0  0  0
   15.3402   27.7899   26.8714 H   0  0  0  0  0
   15.1108   28.8542   24.7884 H   0  0  0  0  0
   14.2682   27.2757   24.6308 H   0  0  0  0  0
   15.6521   27.9634   22.6349 H   0  0  0  0  0
   16.0634   26.3585   23.3289 H   0  0  0  0  0
   17.5504   29.0008   23.8069 H   0  0  0  0  0
   18.1348   27.5965   22.8513 H   0  0  0  0  0
   18.0380   26.1800   24.9230 H   0  0  0  0  0
   19.1379   27.5853   25.1279 H   0  0  0  0  0
   21.5566   29.3485   27.9197 H   0  0  0  0  0
   18.7352   26.6269   28.7601 H   0  0  0  0  0
   20.1325   25.1492   29.9890 H   0  0  0  0  0
   21.5456   26.2458   29.8232 H   0  0  0  0  0
   21.8385   24.4150   28.2888 H   0  0  0  0  0
   20.1742   24.6137   27.6427 H   0  0  0  0  0
   22.5800   26.4516   27.2597 H   0  0  0  0  0
   20.7198   24.8301   25.4756 H   0  0  0  0  0
   21.7539   26.1545   24.8405 H   0  0  0  0  0
   22.9504   23.8578   26.4465 H   0  0  0  0  0
   22.3092   21.8983   25.7143 H   0  0  0  0  0
   22.1890   21.3202   22.6147 H   0  0  0  0  0
   21.9002   19.5872   25.1328 H   0  0  0  0  0
   21.5527   19.1529   22.0084 H   0  0  0  0  0
   21.2323   17.3481   24.4228 H   0  0  0  0  0
   20.8004   16.9574   21.3464 H   0  0  0  0  0
   18.9508   15.4709   21.9739 H   0  0  0  0  0
   19.2949   15.7516   23.7144 H   0  0  0  0  0
   18.6565   18.1484   23.3474 H   0  0  0  0  0
   17.6556   16.8138   25.4326 H   0  0  0  0  0
   16.0113   18.5542   26.2450 H   0  0  0  0  0
   14.5442   18.1404   24.4820 H   0  0  0  0  0
   16.5670   20.4107   23.3065 H   0  0  0  0  0
   19.3291   21.3827   24.2444 H   0  0  0  0  0
   18.0290   21.9690   26.3995 H   0  0  0  0  0
   18.6897   23.6380   26.3310 H   0  0  0  0  0
   15.7165   23.1204   26.0471 H   0  0  0  0  0
   15.6157   24.0157   28.4570 H   0  0  0  0  0
   16.1550   21.6964   29.4689 H   0  0  0  0  0
   16.4179   21.2167   27.7579 H   0  0  0  0  0
   14.0285   21.9196   27.3685 H   0  0  0  0  0
   14.6199   19.5717   29.2275 H   0  0  0  0  0
   14.9010   19.5964   27.4535 H   0  0  0  0  0
   12.5359   19.8436   27.0176 H   0  0  0  0  0
   11.8945   19.5831   29.9965 H   0  0  0  0  0
   10.4610   18.9698   28.2593 H   0  0  0  0  0
   11.5389   21.8896   30.2576 H   0  0  0  0  0
   11.6160   22.2048   28.4908 H   0  0  0  0  0
   13.5982   23.1361   29.4657 H   0  0  0  0  0
   13.9208   21.6418   30.4089 H   0  0  0  0  0
   18.8142   28.6356   30.2136 H   0  0  0  0  0
   20.4579   28.1596   30.7598 H   0  0  0  0  0
   19.0484   27.1107   31.1335 H   0  0  0  0  0
   22.6976   23.1321   22.2183 H   0  0  0  0  0
   23.8673   24.3520   22.8267 H   0  0  0  0  0
   22.1175   24.7492   22.7428 H   0  0  0  0  0
   22.5514   15.4778   22.2993 H   0  0  0  0  0
   21.0913   14.5357   21.8444 H   0  0  0  0  0
   21.4008   14.9363   23.5679 H   0  0  0  0  0
   17.2127   18.6573   21.4058 H   0  0  0  0  0
   17.5650   17.0380   20.7128 H   0  0  0  0  0
   18.8822   18.2471   20.8851 H   0  0  0  0  0
   19.2763   20.3052   25.8610 H   0  0  0  0  0
   19.0283   18.5300   25.9778 H   0  0  0  0  0
   18.1150   19.6374   27.0576 H   0  0  0  0  0
   19.2022   22.7183   22.1545 H   0  0  0  0  0
   17.5190   22.1464   21.8972 H   0  0  0  0  0
   18.8824   20.9780   21.8451 H   0  0  0  0  0
   18.0392   24.4920   28.7067 H   0  0  0  0  0
   18.3786   22.7311   28.6038 H   0  0  0  0  0
   17.4221   23.3827   29.9775 H   0  0  0  0  0
   25.9345   25.4675   25.4698 H   0  0  0  0  0
   25.3724   23.7766   25.2429 H   0  0  0  0  0
   25.1081   24.6078   26.8132 H   0  0  0  0  0
   15.2020   14.7396   26.4186 H   0  0  0  0  0
   16.4919   15.8379   27.0157 H   0  0  0  0  0
   16.8303   14.7080   25.6608 H   0  0  0  0  0
   12.5501   16.4418   27.1192 H   0  0  0  0  0
   13.5146   17.7407   26.3387 H   0  0  0  0  0
   11.7255   17.8775   26.4224 H   0  0  0  0  0
  1  4  1  0  0  0
  1  3  2  0  0  0
  1  2  1  0  0  0
  2 45  1  0  0  0
 45 46  1  0  0  0
 45 44  1  0  0  0
 44 42  1  0  0  0
 42 43  2  0  0  0
 42 41  1  0  0  0
 41 61  1  0  0  0
 41 40  1  0  0  0
 40 39  2  0  0  0
 39 60  1  0  0  0
 39 37  1  0  0  0
 37 38  1  0  0  0
 37 35  1  0  0  0
 35 36  1  0  0  0
 35 33  1  0  0  0
 33 34  2  0  0  0
 33 32  1  0  0  0
 32 59  1  0  0  0
 32 31  1  0  0  0
 31 30  1  0  0  0
 30 58  1  0  0  0
 30 29  1  0  0  0
 29 28  2  0  0  0
 28 27  1  0  0  0
 27 26  2  0  0  0
 26 25  1  0  0  0
 25 24  2  0  0  0
 24 57  1  0  0  0
 24 22  1  0  0  0
 22 23  1  0  0  0
 22 21  1  0  0  0
 21 20  1  0  0  0
 20 19  1  0  0  0
 20 15  1  0  0  0
 15 14  1  0  0  0
 14 17  1  0  0  0
 14 16  1  0  0  0
 14 12  1  0  0  0
 12 13  2  0  0  0
 12 10  1  0  0  0
 10 11  2  0  0  0
 10  9  1  0  0  0
  9  8  1  0  0  0
  9  4  1  0  0  0
  4  5  1  0  0  0
  5  6  1  0  0  0
  6  7  1  0  0  0
  7  8  1  0  0  0
 17 56  1  0  0  0
 17 18  1  0  0  0
 18 19  1  0  0  0
 23 63  1  0  0  0
 36 64  1  0  0  0
 46 62  1  0  0  0
 46 47  1  0  0  0
 47 48  1  0  0  0
 48 55  1  0  0  0
 48 49  1  0  0  0
 49 50  1  0  0  0
 50 52  1  0  0  0
 50 51  1  0  0  0
 51 65  1  0  0  0
 52 54  1  0  0  0
 52 53  1  0  0  0
 54 55  1  0  0  0
  4 66  1  0  0  0
  5 67  1  0  0  0
  5 68  1  0  0  0
  6 69  1  0  0  0
  6 70  1  0  0  0
  7 71  1  0  0  0
  7 72  1  0  0  0
  8 73  1  0  0  0
  8 74  1  0  0  0
 16 75  1  0  0  0
 17 76  1  0  0  0
 18 77  1  0  0  0
 18 78  1  0  0  0
 19 79  1  0  0  0
 19 80  1  0  0  0
 20 81  1  0  0  0
 21 82  1  0  0  0
 21 83  1  0  0  0
 22 84  1  0  0  0
 25 85  1  0  0  0
 26 86  1  0  0  0
 27 87  1  0  0  0
 28 88  1  0  0  0
 29 89  1  0  0  0
 30 90  1  0  0  0
 31 91  1  0  0  0
 31 92  1  0  0  0
 32 93  1  0  0  0
 35 94  1  0  0  0
 37 95  1  0  0  0
 38 96  1  0  0  0
 40 97  1  0  0  0
 41 98  1  0  0  0
 44 99  1  0  0  0
 44100  1  0  0  0
 45101  1  0  0  0
 46102  1  0  0  0
 47103  1  0  0  0
 47104  1  0  0  0
 48105  1  0  0  0
 49106  1  0  0  0
 49107  1  0  0  0
 50108  1  0  0  0
 52109  1  0  0  0
 53110  1  0  0  0
 54111  1  0  0  0
 54112  1  0  0  0
 55113  1  0  0  0
 55114  1  0  0  0
 56115  1  0  0  0
 56116  1  0  0  0
 56117  1  0  0  0
 57118  1  0  0  0
 57119  1  0  0  0
 57120  1  0  0  0
 58121  1  0  0  0
 58122  1  0  0  0
 58123  1  0  0  0
 59124  1  0  0  0
 59125  1  0  0  0
 59126  1  0  0  0
 60127  1  0  0  0
 60128  1  0  0  0
 60129  1  0  0  0
 61130  1  0  0  0
 61131  1  0  0  0
 61132  1  0  0  0
 62133  1  0  0  0
 62134  1  0  0  0
 62135  1  0  0  0
 63136  1  0  0  0
 63137  1  0  0  0
 63138  1  0  0  0
 64139  1  0  0  0
 64140  1  0  0  0
 64141  1  0  0  0
 65142  1  0  0  0
 65143  1  0  0  0
 65144  1  0  0  0
M  END
$$$$
