1o3i_ligand
  -I-interpret- 

 36 38  0  0  0  0  0  0  0  0999 V2000
   44.2440   -3.0370   25.8830 C   0  0  0  0  0
   44.6460   -1.6870   26.0030 C   0  0  0  0  0
   44.5720   -1.0070   27.2140 C   0  0  0  0  0
   44.1010   -1.6690   28.3180 C   0  0  0  0  0
   43.6970   -2.9570   28.2460 C   0  0  0  0  0
   43.7470   -3.6920   27.0540 C   0  0  0  0  0
   44.3520   -3.6950   24.6090 C   0  3  0  0  0
   43.9890   -4.9600   24.4500 N   0  0  0  0  0
   44.8280   -2.9980   23.5970 N   0  0  0  0  0
   43.9570   -1.2390   29.5440 N   0  0  0  0  0
   43.2920   -3.3100   29.5090 C   0  0  0  0  0
   43.4810   -2.1820   30.3070 C   0  0  0  0  0
   43.2640   -2.0470   31.7000 C   0  0  0  0  0
   42.9160   -3.1610   32.4830 C   0  0  0  0  0
   42.7070   -3.0250   33.8780 C   0  0  0  0  0
   42.3430   -4.1930   34.7610 C   0  0  0  0  0
   42.8370   -1.8170   34.4930 C   0  0  0  0  0
   43.1740   -0.7480   33.7360 C   0  0  0  0  0
   43.3930   -0.8150   32.3460 C   0  0  0  0  0
   43.7220    0.3330   31.6420 O   0  0  0  0  0
   43.3620    0.8820   34.7170 Br  0  0  0  0  0
   45.0290   -1.1420   25.1590 H   0  0  0  0  0
   44.8820    0.0260   27.2890 H   0  0  0  0  0
   43.4180   -4.7180   27.0330 H   0  0  0  0  0
   43.6710   -5.4880   25.2530 H   0  0  0  0  0
   44.0270   -5.4620   23.5930 H   0  0  0  0  0
   45.1060   -2.0360   23.7260 H   0  0  0  0  0
   44.9700   -3.3720   22.6860 H   0  0  0  0  0
   44.1730   -0.3390   29.8900 H   0  0  0  0  0
   42.9060   -4.2790   29.8190 H   0  0  0  0  0
   42.8060   -4.1260   32.0160 H   0  0  0  0  0
   41.4930   -3.9140   35.3670 H   0  0  0  0  0
   42.0910   -5.0400   34.1440 H   0  0  0  0  0
   43.1890   -4.4260   35.3890 H   0  0  0  0  0
   42.6790   -1.6990   35.5540 H   0  0  0  0  0
   43.8353    0.1184   30.7236 H   0  0  0  0  0
  1  2  4  0  0  0
  1  6  4  0  0  0
  1  7  1  0  0  0
  2  3  4  0  0  0
  2 22  1  0  0  0
  3  4  4  0  0  0
  3 23  1  0  0  0
  4  5  4  0  0  0
  4 10  1  0  0  0
  5  6  4  0  0  0
  5 11  1  0  0  0
  6 24  1  0  0  0
  7  8  1  0  0  0
  7  9  1  0  0  0
  8 25  1  0  0  0
  8 26  1  0  0  0
  9 27  1  0  0  0
  9 28  1  0  0  0
 10 12  1  0  0  0
 10 29  1  0  0  0
 11 12  2  0  0  0
 11 30  1  0  0  0
 12 13  1  0  0  0
 13 14  4  0  0  0
 13 19  4  0  0  0
 14 15  4  0  0  0
 14 31  1  0  0  0
 15 16  1  0  0  0
 15 17  4  0  0  0
 16 32  1  0  0  0
 16 33  1  0  0  0
 16 34  1  0  0  0
 17 18  4  0  0  0
 17 35  1  0  0  0
 18 19  4  0  0  0
 18 21  1  0  0  0
 19 20  1  0  0  0
 20 36  1  0  0  0
M  END
$$$$
