### 
### Created by X-TOOL on Mon Oct 24 22:01:07 2005
### 

@<TRIPOS>MOLECULE
1o3i_ligand
   36    38     1     0     0
SMALL
GAST_HUCK


@<TRIPOS>ATOM
      1 C1         44.2440   -3.0370   25.8830 C.ar      1 SUB1        0.169
      2 C2         44.6460   -1.6870   26.0030 C.ar      1 SUB1       -0.022
      3 C3         44.5720   -1.0070   27.2140 C.ar      1 SUB1       -0.039
      4 C4         44.1010   -1.6690   28.3180 C.ar      1 SUB1        0.063
      5 C5         43.6970   -2.9570   28.2460 C.ar      1 SUB1       -0.022
      6 C6         43.7470   -3.6920   27.0540 C.ar      1 SUB1       -0.021
      7 C7         44.3520   -3.6950   24.6090 C.cat     1 SUB1        0.309
      8 N1         43.9890   -4.9600   24.4500 N.pl3     1 SUB1       -0.201
      9 N2         44.8280   -2.9980   23.5970 N.pl3     1 SUB1       -0.201
     10 N3         43.9570   -1.2390   29.5440 N.pl3     1 SUB1       -0.276
     11 CN4        43.2920   -3.3100   29.5090 C.2       1 SUB1       -0.058
     12 C8         43.4810   -2.1820   30.3070 C.2       1 SUB1        0.060
     13 C1'        43.2640   -2.0470   31.7000 C.ar      1 SUB1        0.032
     14 C2'        42.9160   -3.1610   32.4830 C.ar      1 SUB1       -0.056
     15 C3'        42.7070   -3.0250   33.8780 C.ar      1 SUB1       -0.054
     16 C31'       42.3430   -4.1930   34.7610 C.3       1 SUB1       -0.036
     17 C4'        42.8370   -1.8170   34.4930 C.ar      1 SUB1       -0.059
     18 C5'        43.1740   -0.7480   33.7360 C.ar      1 SUB1        0.036
     19 C6'        43.3930   -0.8150   32.3460 C.ar      1 SUB1        0.105
     20 O6'        43.7220    0.3330   31.6420 O.3       1 SUB1       -0.332
     21 BR5'       43.3620    0.8820   34.7170 Br        1 SUB1       -0.060
     22 H21        45.0290   -1.1420   25.1590 H         1 SUB1        0.058
     23 H31        44.8820    0.0260   27.2890 H         1 SUB1        0.054
     24 H61        43.4180   -4.7180   27.0330 H         1 SUB1        0.058
     25 H81        43.6710   -5.4880   25.2530 H         1 SUB1        0.192
     26 H82        44.0270   -5.4620   23.5930 H         1 SUB1        0.192
     27 H91        45.1060   -2.0360   23.7260 H         1 SUB1        0.192
     28 H92        44.9700   -3.3720   22.6860 H         1 SUB1        0.192
     29 H101       44.1730   -0.3390   29.8900 H         1 SUB1        0.223
     30 H111       42.9060   -4.2790   29.8190 H         1 SUB1        0.030
     31 H141       42.8060   -4.1260   32.0160 H         1 SUB1        0.055
     32 H161       41.4930   -3.9140   35.3670 H         1 SUB1        0.037
     33 H162       42.0910   -5.0400   34.1440 H         1 SUB1        0.037
     34 H163       43.1890   -4.4260   35.3890 H         1 SUB1        0.037
     35 H171       42.6790   -1.6990   35.5540 H         1 SUB1        0.056
     36 H201       43.8353    0.1184   30.7236 H         1 SUB1        0.250
@<TRIPOS>BOND
     1    1    2 ar 
     2    1    6 ar 
     3    1    7 1  
     4    2    3 ar 
     5    2   22 1  
     6    3    4 ar 
     7    3   23 1  
     8    4    5 ar 
     9    4   10 1  
    10    5    6 ar 
    11    5   11 1  
    12    6   24 1  
    13    7    8 1  
    14    7    9 1  
    15    8   25 1  
    16    8   26 1  
    17    9   27 1  
    18    9   28 1  
    19   10   12 1  
    20   10   29 1  
    21   11   12 2  
    22   11   30 1  
    23   12   13 1  
    24   13   14 ar 
    25   13   19 ar 
    26   14   15 ar 
    27   14   31 1  
    28   15   16 1  
    29   15   17 ar 
    30   16   32 1  
    31   16   33 1  
    32   16   34 1  
    33   17   18 ar 
    34   17   35 1  
    35   18   19 ar 
    36   18   21 1  
    37   19   20 1  
    38   20   36 1  
@<TRIPOS>SUBSTRUCTURE
     1 SUB1        1 GROUP

