### 
### Created by X-TOOL on Sun Jun  3 11:23:15 2007
### 

@<TRIPOS>MOLECULE
2f5t_ligand
   45    46     1     0     0
SMALL
GAST_HUCK


@<TRIPOS>ATOM
      1 C1         34.4190   33.4820   30.6460 C.3       1 SUB1        0.188
      2 C2         33.1780   32.6280   30.2940 C.3       1 SUB1        0.134
      3 C3         33.6850   31.3090   29.7090 C.3       1 SUB1        0.114
      4 C4         34.5990   31.5520   28.4880 C.3       1 SUB1        0.112
      5 C5         35.7010   32.5520   28.8180 C.3       1 SUB1        0.113
      6 C6         36.4390   32.9750   27.5430 C.3       1 SUB1        0.073
      7 O1         35.1540   32.7630   31.5820 O.3       1 SUB1       -0.340
      8 O2         32.3840   32.4080   31.4230 O.3       1 SUB1       -0.384
      9 O3         32.5520   30.4710   29.3950 O.3       1 SUB1       -0.386
     10 O4         35.1120   30.2950   28.0700 O.3       1 SUB1       -0.387
     11 O5         35.1410   33.7160   29.4380 O.3       1 SUB1       -0.340
     12 O6         35.5550   33.5740   26.5600 O.3       1 SUB1       -0.392
     13 C1'        36.8910   33.3440   35.2690 C.3       1 SUB1        0.185
     14 C2'        35.7240   34.2810   34.9740 C.3       1 SUB1        0.134
     15 C3'        34.9570   33.8190   33.7270 C.3       1 SUB1        0.114
     16 C4'        35.8830   33.4960   32.5460 C.3       1 SUB1        0.118
     17 C5'        37.0170   32.5890   32.9990 C.3       1 SUB1        0.113
     18 C6'        38.0400   32.3270   31.8840 C.3       1 SUB1        0.073
     19 O1'        37.6070   33.7320   36.3590 O.3       1 SUB1       -0.365
     20 O2'        34.8000   34.4230   36.0340 O.3       1 SUB1       -0.384
     21 O3'        34.0430   34.8130   33.3610 O.3       1 SUB1       -0.386
     22 O5'        37.6840   33.1200   34.1370 O.3       1 SUB1       -0.341
     23 O6'        38.8680   33.4540   31.6510 O.3       1 SUB1       -0.392
     24 H          34.1698   34.4521   31.0759 H         1 SUB1        0.094
     25 H          32.5504   33.1471   29.5696 H         1 SUB1        0.067
     26 H          34.3016   30.7924   30.4445 H         1 SUB1        0.065
     27 H          34.0332   31.9958   27.6688 H         1 SUB1        0.065
     28 H          36.4024   32.0725   29.5008 H         1 SUB1        0.065
     29 H          36.8798   32.0827   27.0985 H         1 SUB1        0.058
     30 H          37.1870   33.7183   27.8190 H         1 SUB1        0.058
     31 H          32.9007   31.9538   32.0926 H         1 SUB1        0.210
     32 H          32.0168   30.3501   30.1827 H         1 SUB1        0.210
     33 H          34.3828   29.7021   27.8745 H         1 SUB1        0.210
     34 H          35.1428   34.3553   26.9359 H         1 SUB1        0.209
     35 H          36.4625   32.3768   35.5316 H         1 SUB1        0.094
     36 H          36.1881   35.2547   34.8173 H         1 SUB1        0.067
     37 H          34.4380   32.8943   33.9794 H         1 SUB1        0.065
     38 H          36.2701   34.4335   32.1468 H         1 SUB1        0.065
     39 H          36.5536   31.6389   33.2648 H         1 SUB1        0.065
     40 H          37.4958   32.1069   30.9656 H         1 SUB1        0.058
     41 H          38.6737   31.4947   32.1902 H         1 SUB1        0.058
     42 H          38.2439   33.0491   36.5818 H         1 SUB1        0.213
     43 H          34.1369   35.0744   35.7939 H         1 SUB1        0.210
     44 H          33.4688   35.0080   34.1053 H         1 SUB1        0.210
     45 H          39.3469   33.6695   32.4546 H         1 SUB1        0.209
@<TRIPOS>BOND
     1    1    2 1  
     2    7    1 1  
     3    1   11 1  
     4    2    3 1  
     5    2    8 1  
     6    3    4 1  
     7    3    9 1  
     8    5    4 1  
     9    4   10 1  
    10    5    6 1  
    11   11    5 1  
    12    6   12 1  
    13   16    7 1  
    14   14   13 1  
    15   13   19 1  
    16   13   22 1  
    17   15   14 1  
    18   14   20 1  
    19   15   16 1  
    20   15   21 1  
    21   16   17 1  
    22   17   18 1  
    23   17   22 1  
    24   18   23 1  
    25    1   24 1  
    26    2   25 1  
    27    3   26 1  
    28    4   27 1  
    29    5   28 1  
    30    6   29 1  
    31    6   30 1  
    32    8   31 1  
    33    9   32 1  
    34   10   33 1  
    35   12   34 1  
    36   13   35 1  
    37   14   36 1  
    38   15   37 1  
    39   16   38 1  
    40   17   39 1  
    41   18   40 1  
    42   18   41 1  
    43   19   42 1  
    44   20   43 1  
    45   21   44 1  
    46   23   45 1  
@<TRIPOS>SUBSTRUCTURE
     1 SUB1        1 GROUP

