2f5t_ligand
  -I-interpret- 

 45 46  0  0  0  0  0  0  0  0999 V2000
   34.4190   33.4820   30.6460 C   0  0  0  0  0
   33.1780   32.6280   30.2940 C   0  0  0  0  0
   33.6850   31.3090   29.7090 C   0  0  0  0  0
   34.5990   31.5520   28.4880 C   0  0  0  0  0
   35.7010   32.5520   28.8180 C   0  0  0  0  0
   36.4390   32.9750   27.5430 C   0  0  0  0  0
   35.1540   32.7630   31.5820 O   0  0  0  0  0
   32.3840   32.4080   31.4230 O   0  0  0  0  0
   32.5520   30.4710   29.3950 O   0  0  0  0  0
   35.1120   30.2950   28.0700 O   0  0  0  0  0
   35.1410   33.7160   29.4380 O   0  0  0  0  0
   35.5550   33.5740   26.5600 O   0  0  0  0  0
   36.8910   33.3440   35.2690 C   0  0  0  0  0
   35.7240   34.2810   34.9740 C   0  0  0  0  0
   34.9570   33.8190   33.7270 C   0  0  0  0  0
   35.8830   33.4960   32.5460 C   0  0  0  0  0
   37.0170   32.5890   32.9990 C   0  0  0  0  0
   38.0400   32.3270   31.8840 C   0  0  0  0  0
   37.6070   33.7320   36.3590 O   0  0  0  0  0
   34.8000   34.4230   36.0340 O   0  0  0  0  0
   34.0430   34.8130   33.3610 O   0  0  0  0  0
   37.6840   33.1200   34.1370 O   0  0  0  0  0
   38.8680   33.4540   31.6510 O   0  0  0  0  0
   34.1698   34.4521   31.0759 H   0  0  0  0  0
   32.5504   33.1471   29.5696 H   0  0  0  0  0
   34.3016   30.7924   30.4445 H   0  0  0  0  0
   34.0332   31.9958   27.6688 H   0  0  0  0  0
   36.4024   32.0725   29.5008 H   0  0  0  0  0
   36.8798   32.0827   27.0985 H   0  0  0  0  0
   37.1870   33.7183   27.8190 H   0  0  0  0  0
   32.9007   31.9538   32.0926 H   0  0  0  0  0
   32.0168   30.3501   30.1827 H   0  0  0  0  0
   34.3828   29.7021   27.8745 H   0  0  0  0  0
   35.1428   34.3553   26.9359 H   0  0  0  0  0
   36.4625   32.3768   35.5316 H   0  0  0  0  0
   36.1881   35.2547   34.8173 H   0  0  0  0  0
   34.4380   32.8943   33.9794 H   0  0  0  0  0
   36.2701   34.4335   32.1468 H   0  0  0  0  0
   36.5536   31.6389   33.2648 H   0  0  0  0  0
   37.4958   32.1069   30.9656 H   0  0  0  0  0
   38.6737   31.4947   32.1902 H   0  0  0  0  0
   38.2439   33.0491   36.5818 H   0  0  0  0  0
   34.1369   35.0744   35.7939 H   0  0  0  0  0
   33.4688   35.0080   34.1053 H   0  0  0  0  0
   39.3469   33.6695   32.4546 H   0  0  0  0  0
  1  2  1  0  0  0
  7  1  1  0  0  0
  1 11  1  0  0  0
  2  3  1  0  0  0
  2  8  1  0  0  0
  3  4  1  0  0  0
  3  9  1  0  0  0
  5  4  1  0  0  0
  4 10  1  0  0  0
  5  6  1  0  0  0
 11  5  1  0  0  0
  6 12  1  0  0  0
 16  7  1  0  0  0
 14 13  1  0  0  0
 13 19  1  0  0  0
 13 22  1  0  0  0
 15 14  1  0  0  0
 14 20  1  0  0  0
 15 16  1  0  0  0
 15 21  1  0  0  0
 16 17  1  0  0  0
 17 18  1  0  0  0
 17 22  1  0  0  0
 18 23  1  0  0  0
  1 24  1  0  0  0
  2 25  1  0  0  0
  3 26  1  0  0  0
  4 27  1  0  0  0
  5 28  1  0  0  0
  6 29  1  0  0  0
  6 30  1  0  0  0
  8 31  1  0  0  0
  9 32  1  0  0  0
 10 33  1  0  0  0
 12 34  1  0  0  0
 13 35  1  0  0  0
 14 36  1  0  0  0
 15 37  1  0  0  0
 16 38  1  0  0  0
 17 39  1  0  0  0
 18 40  1  0  0  0
 18 41  1  0  0  0
 19 42  1  0  0  0
 20 43  1  0  0  0
 21 44  1  0  0  0
 23 45  1  0  0  0
M  END
$$$$
