### 
### Created by X-TOOL on Tue Oct 25 02:30:55 2005
### 

@<TRIPOS>MOLECULE
1drj_ligand
   20    20     1     0     0
SMALL
GAST_HUCK


@<TRIPOS>ATOM
      1 C1         50.1230   34.0140   43.2800 C.3       1 SUB1        0.185
      2 C2         49.4070   33.4660   44.5170 C.3       1 SUB1        0.134
      3 C3         49.0130   34.5990   45.4310 C.3       1 SUB1        0.114
      4 C4         50.2290   35.4740   45.7600 C.3       1 SUB1        0.107
      5 C5         50.9290   35.9190   44.4860 C.3       1 SUB1        0.079
      6 O1         50.5470   32.9690   42.4360 O.3       1 SUB1       -0.365
      7 O2         48.2460   32.7680   44.1460 O.3       1 SUB1       -0.384
      8 O3         48.0230   35.3570   44.7770 O.3       1 SUB1       -0.386
      9 O4         49.8410   36.6150   46.4860 O.3       1 SUB1       -0.387
     10 O5         51.2510   34.7940   43.6660 O.3       1 SUB1       -0.346
     11 H11        49.4212   34.6537   42.7248 H         1 SUB1        0.094
     12 H21        50.0857   32.7848   45.0512 H         1 SUB1        0.067
     13 H31        48.6037   34.1900   46.3665 H         1 SUB1        0.065
     14 H41        50.9315   34.8849   46.3678 H         1 SUB1        0.064
     15 H51        51.8554   36.4501   44.7499 H         1 SUB1        0.059
     16 H52        50.2654   36.5949   43.9268 H         1 SUB1        0.059
     17 H61        50.9605   33.3356   41.6632 H         1 SUB1        0.213
     18 H71        47.6589   33.3550   43.6842 H         1 SUB1        0.210
     19 H81        47.2721   34.8046   44.5941 H         1 SUB1        0.210
     20 H91        49.2273   37.1240   45.9696 H         1 SUB1        0.210
@<TRIPOS>BOND
     1    1   10 1  
     2    1    6 1  
     3    1    2 1  
     4    2    7 1  
     5    2    3 1  
     6    3    8 1  
     7    3    4 1  
     8    4    9 1  
     9    4    5 1  
    10    5   10 1  
    11    1   11 1  
    12    2   12 1  
    13    3   13 1  
    14    4   14 1  
    15    5   15 1  
    16    5   16 1  
    17    6   17 1  
    18    7   18 1  
    19    8   19 1  
    20    9   20 1  
@<TRIPOS>SUBSTRUCTURE
     1 SUB1        1 GROUP

