1drj_ligand
  -I-interpret- 

 20 20  0  0  0  0  0  0  0  0999 V2000
   50.1230   34.0140   43.2800 C   0  0  0  0  0
   49.4070   33.4660   44.5170 C   0  0  0  0  0
   49.0130   34.5990   45.4310 C   0  0  0  0  0
   50.2290   35.4740   45.7600 C   0  0  0  0  0
   50.9290   35.9190   44.4860 C   0  0  0  0  0
   50.5470   32.9690   42.4360 O   0  0  0  0  0
   48.2460   32.7680   44.1460 O   0  0  0  0  0
   48.0230   35.3570   44.7770 O   0  0  0  0  0
   49.8410   36.6150   46.4860 O   0  0  0  0  0
   51.2510   34.7940   43.6660 O   0  0  0  0  0
   49.4212   34.6537   42.7248 H   0  0  0  0  0
   50.0857   32.7848   45.0512 H   0  0  0  0  0
   48.6037   34.1900   46.3665 H   0  0  0  0  0
   50.9315   34.8849   46.3678 H   0  0  0  0  0
   51.8554   36.4501   44.7499 H   0  0  0  0  0
   50.2654   36.5949   43.9268 H   0  0  0  0  0
   50.9605   33.3356   41.6632 H   0  0  0  0  0
   47.6589   33.3550   43.6842 H   0  0  0  0  0
   47.2721   34.8046   44.5941 H   0  0  0  0  0
   49.2273   37.1240   45.9696 H   0  0  0  0  0
  1 10  1  0  0  0
  1  6  1  0  0  0
  1  2  1  0  0  0
  2  7  1  0  0  0
  2  3  1  0  0  0
  3  8  1  0  0  0
  3  4  1  0  0  0
  4  9  1  0  0  0
  4  5  1  0  0  0
  5 10  1  0  0  0
  1 11  1  0  0  0
  2 12  1  0  0  0
  3 13  1  0  0  0
  4 14  1  0  0  0
  5 15  1  0  0  0
  5 16  1  0  0  0
  6 17  1  0  0  0
  7 18  1  0  0  0
  8 19  1  0  0  0
  9 20  1  0  0  0
M  END
$$$$
