### 
### Created by X-TOOL on Sun Jun  3 12:16:03 2007
### 

@<TRIPOS>MOLECULE
2f2h_ligand
   53    55     1     0     0
SMALL
GAST_HUCK


@<TRIPOS>ATOM
      1 C14       141.3860   60.1150  132.6660 C.ar      1 SUB1       -0.044
      2 C13       141.3370   58.7280  132.6660 C.ar      1 SUB1       -0.045
      3 C12       142.4670   57.9860  132.3270 C.ar      1 SUB1        0.120
      4 N1        142.4460   56.6300  132.3060 N.2       1 SUB1        0.115
      5 O10       143.6040   55.9920  131.8150 O.2       1 SUB1       -0.116
      6 O11       141.3180   55.8260  132.7560 O.2       1 SUB1       -0.116
      7 C17       143.6300   58.6740  131.9720 C.ar      1 SUB1       -0.045
      8 C16       143.6770   60.0560  131.9790 C.ar      1 SUB1       -0.044
      9 C15       142.5500   60.7890  132.3310 C.ar      1 SUB1        0.081
     10 O1        142.5250   62.1500  132.3940 O.3       1 SUB1       -0.294
     11 C1        143.7900   62.8490  132.7010 C.3       1 SUB1        0.207
     12 O5        144.6050   62.2950  133.7470 O.3       1 SUB1       -0.339
     13 C2        143.5230   64.3130  133.1030 C.3       1 SUB1        0.138
     14 O2        142.7280   64.9010  132.1130 O.3       1 SUB1       -0.384
     15 C3        144.8330   65.0720  133.2410 C.3       1 SUB1        0.114
     16 O3        144.6250   66.3780  133.6620 O.3       1 SUB1       -0.386
     17 C4        145.6810   64.2860  134.1930 C.3       1 SUB1        0.111
     18 O4        146.9590   64.8320  134.3220 O.3       1 SUB1       -0.387
     19 C5        145.8420   62.9300  133.5620 C.3       1 SUB1        0.099
     20 C6        147.1050   62.3560  134.1110 C.3       1 SUB1        0.025
     21 S6        146.8700   60.9700  135.2510 S.3       1 SUB1       -0.124
     22 C7        147.7090   61.1920  136.9100 C.3       1 SUB1        0.133
     23 O9        146.9010   60.7380  138.0030 O.3       1 SUB1       -0.361
     24 C11       146.7780   59.2870  138.0820 C.3       1 SUB1        0.078
     25 C10       148.1020   58.4950  138.1180 C.3       1 SUB1        0.107
     26 O8        147.7750   57.0960  137.8880 O.3       1 SUB1       -0.387
     27 C9        149.0790   59.0220  137.0360 C.3       1 SUB1        0.112
     28 O7        150.3650   58.3390  137.1410 O.3       1 SUB1       -0.387
     29 C8        149.1200   60.5820  137.1120 C.3       1 SUB1        0.119
     30 O6        149.9970   61.2920  136.2080 O.3       1 SUB1       -0.386
     31 H         140.4952   60.6832  132.9336 H         1 SUB1        0.051
     32 H         140.4116   58.2172  132.9320 H         1 SUB1        0.049
     33 H         144.5175   58.1105  131.6839 H         1 SUB1        0.049
     34 H         144.5988   60.5709  131.7082 H         1 SUB1        0.051
     35 H         144.3425   62.7401  131.7677 H         1 SUB1        0.099
     36 H         143.0114   64.3462  134.0649 H         1 SUB1        0.068
     37 H         141.8993   64.4214  132.0430 H         1 SUB1        0.210
     38 H         145.3378   65.1661  132.2796 H         1 SUB1        0.065
     39 H         144.0750   66.8356  133.0219 H         1 SUB1        0.210
     40 H         145.2140   64.2711  135.1778 H         1 SUB1        0.065
     41 H         146.8899   65.7311  134.6513 H         1 SUB1        0.210
     42 H         146.0084   62.8552  132.4874 H         1 SUB1        0.063
     43 H         147.5973   63.1499  134.6727 H         1 SUB1        0.040
     44 H         147.6769   61.9775  133.2638 H         1 SUB1        0.040
     45 H         147.8420   62.2738  136.9010 H         1 SUB1        0.074
     46 H         146.2597   58.9746  137.1754 H         1 SUB1        0.059
     47 H         146.2692   59.0743  139.0222 H         1 SUB1        0.059
     48 H         148.5977   58.6137  139.0815 H         1 SUB1        0.064
     49 H         148.5802   56.5735  137.9042 H         1 SUB1        0.210
     50 H         148.7380   58.7871  136.0277 H         1 SUB1        0.065
     51 H         150.9601   58.6741  136.4663 H         1 SUB1        0.210
     52 H         149.5300   60.7237  138.1120 H         1 SUB1        0.065
     53 H         149.9203   62.2360  136.3650 H         1 SUB1        0.210
@<TRIPOS>BOND
     1    1    2 ar 
     2    1    9 ar 
     3    2    3 ar 
     4    3    4 1  
     5    3    7 ar 
     6    4    5 2  
     7    4    6 2  
     8    7    8 ar 
     9    8    9 ar 
    10    9   10 1  
    11   10   11 1  
    12   11   12 1  
    13   11   13 1  
    14   12   19 1  
    15   13   14 1  
    16   13   15 1  
    17   15   16 1  
    18   15   17 1  
    19   17   18 1  
    20   17   19 1  
    21   19   20 1  
    22   20   21 1  
    23   21   22 1  
    24   22   23 1  
    25   22   29 1  
    26   23   24 1  
    27   24   25 1  
    28   25   26 1  
    29   25   27 1  
    30   27   28 1  
    31   27   29 1  
    32   29   30 1  
    33    1   31 1  
    34    2   32 1  
    35    7   33 1  
    36    8   34 1  
    37   11   35 1  
    38   13   36 1  
    39   14   37 1  
    40   15   38 1  
    41   16   39 1  
    42   17   40 1  
    43   18   41 1  
    44   19   42 1  
    45   20   43 1  
    46   20   44 1  
    47   22   45 1  
    48   24   46 1  
    49   24   47 1  
    50   25   48 1  
    51   26   49 1  
    52   27   50 1  
    53   28   51 1  
    54   29   52 1  
    55   30   53 1  
@<TRIPOS>SUBSTRUCTURE
     1 SUB1        1 GROUP

