### 
### Created by X-TOOL on Sun Jun  3 11:58:07 2007
### 

@<TRIPOS>MOLECULE
2c92_ligand
   54    55     1     0     0
SMALL
GAST_HUCK


@<TRIPOS>ATOM
      1 O2P       -18.1910    3.9620   -1.2500 O.co2     1 SUB1       -0.535
      2 P         -18.4370    3.9900    0.2530 P.3       1 SUB1        0.205
      3 O3P       -17.1510    3.9580    1.0510 O.co2     1 SUB1       -0.535
      4 O1P       -19.3770    5.0550    0.7340 O.co2     1 SUB1       -0.535
      5 O27       -19.1890    2.5880    0.4800 O.3       1 SUB1       -0.322
      6 C19       -19.3670    2.1280    1.8460 C.3       1 SUB1        0.066
      7 C18       -19.3620    0.8180    2.0640 C.3       1 SUB1       -0.025
      8 C17       -19.4970    0.3650    3.4420 C.3       1 SUB1       -0.048
      9 C16       -20.6690    0.2970    4.0640 C.3       1 SUB1       -0.029
     10 C15       -21.9780    0.6070    3.3900 C.3       1 SUB1        0.043
     11 N5        -22.9560    0.3330    4.4390 N.am      1 SUB1       -0.235
     12 C9        -23.3910   -0.8410    4.9170 C.2       1 SUB1        0.149
     13 C4        -23.0860   -2.2390    4.5680 C.2       1 SUB1        0.200
     14 O2        -22.2870   -2.5260    3.6620 O.2       1 SUB1       -0.420
     15 N3        -23.7270   -3.2060    5.2660 N.am      1 SUB1       -0.191
     16 C6        -23.6040    1.2120    5.1890 C.2       1 SUB1        0.299
     17 O4        -23.4790    2.4780    5.0610 O.2       1 SUB1       -0.408
     18 N7        -24.4150    0.7220    6.1220 N.am      1 SUB1       -0.181
     19 C8        -24.3540   -0.5950    6.0000 C.2       1 SUB1        0.199
     20 N1        -24.9270   -1.6560    6.6150 N.am      1 SUB1       -0.194
     21 C2        -24.6070   -2.9160    6.2650 C.2       1 SUB1        0.316
     22 O1        -25.1580   -3.8500    6.8580 O.2       1 SUB1       -0.388
     23 C10       -25.2130    1.5690    6.9860 C.3       1 SUB1        0.089
     24 C11       -25.6670    0.9650    8.2910 C.3       1 SUB1        0.110
     25 O19       -24.8620   -0.0700    8.9060 O.3       1 SUB1       -0.387
     26 C12       -26.3120    1.9450    9.2510 C.3       1 SUB1        0.111
     27 O21       -27.6320    1.5470    8.9280 O.3       1 SUB1       -0.387
     28 C13       -26.1580    3.4500    9.0130 C.3       1 SUB1        0.106
     29 O23       -24.8150    3.8680    9.3060 O.3       1 SUB1       -0.387
     30 C14       -27.0850    4.2170    9.9590 C.3       1 SUB1        0.073
     31 O26       -26.8070    3.8260   11.3150 O.3       1 SUB1       -0.392
     32 H         -20.3339    2.5156    2.1993 H         1 SUB1        0.061
     33 H         -18.5554    2.5637    2.4473 H         1 SUB1        0.061
     34 H         -18.4099    0.4236    1.6793 H         1 SUB1        0.029
     35 H         -20.1960    0.3855    1.4918 H         1 SUB1        0.029
     36 H         -18.8703    1.0374    4.0463 H         1 SUB1        0.027
     37 H         -19.0777   -0.6516    3.4707 H         1 SUB1        0.027
     38 H         -20.5983    0.9865    4.9182 H         1 SUB1        0.029
     39 H         -20.7561   -0.7357    4.4326 H         1 SUB1        0.029
     40 H         -22.1389   -0.0447    2.5186 H         1 SUB1        0.056
     41 H         -22.0211    1.6596    3.0736 H         1 SUB1        0.056
     42 H         -23.5488   -4.1640    5.0411 H         1 SUB1        0.224
     43 H         -25.5980   -1.5016    7.3402 H         1 SUB1        0.231
     44 H         -26.1115    1.8658    6.4251 H         1 SUB1        0.062
     45 H         -24.6160    2.4624    7.2215 H         1 SUB1        0.062
     46 H         -26.5355    0.3781    7.9574 H         1 SUB1        0.065
     47 H         -25.2726   -0.3498    9.7157 H         1 SUB1        0.210
     48 H         -26.0303    1.7275   10.2918 H         1 SUB1        0.065
     49 H         -28.2493    2.0568    9.4393 H         1 SUB1        0.210
     50 H         -26.4055    3.6840    7.9671 H         1 SUB1        0.064
     51 H         -24.6159    3.6758   10.2148 H         1 SUB1        0.210
     52 H         -28.1323    3.9841    9.7165 H         1 SUB1        0.058
     53 H         -26.9139    5.2977    9.8455 H         1 SUB1        0.058
     54 H         -25.9021    4.0274   11.5223 H         1 SUB1        0.209
@<TRIPOS>BOND
     1    1    2 2  
     2    2    3 2  
     3    2    4 2  
     4    2    5 1  
     5    5    6 1  
     6    6    7 1  
     7    7    8 1  
     8    8    9 1  
     9    9   10 1  
    10   10   11 1  
    11   11   12 am 
    12   11   16 am 
    13   12   13 1  
    14   12   19 2  
    15   13   14 2  
    16   13   15 am 
    17   15   21 am 
    18   16   17 2  
    19   16   18 am 
    20   18   19 am 
    21   18   23 1  
    22   19   20 1  
    23   20   21 am 
    24   21   22 2  
    25   23   24 1  
    26   24   25 1  
    27   24   26 1  
    28   26   27 1  
    29   26   28 1  
    30   28   29 1  
    31   28   30 1  
    32   30   31 1  
    33    6   32 1  
    34    6   33 1  
    35    7   34 1  
    36    7   35 1  
    37    8   36 1  
    38    8   37 1  
    39    9   38 1  
    40    9   39 1  
    41   10   40 1  
    42   10   41 1  
    43   15   42 1  
    44   20   43 1  
    45   23   44 1  
    46   23   45 1  
    47   24   46 1  
    48   25   47 1  
    49   26   48 1  
    50   27   49 1  
    51   28   50 1  
    52   29   51 1  
    53   30   52 1  
    54   30   53 1  
    55   31   54 1  
@<TRIPOS>SUBSTRUCTURE
     1 SUB1        1 GROUP

