### 
### Created by X-TOOL on Tue Oct 25 00:26:47 2005
### 

@<TRIPOS>MOLECULE
2tpi_ligand
   38    37     1     0     0
SMALL
GAST_HUCK


@<TRIPOS>ATOM
      1 N          18.8070   65.5860   12.6500 N.4       1 SUB1        0.238
      2 CA         19.7550   64.7920   13.4380 C.3       1 SUB1        0.068
      3 C          21.1160   64.7600   12.7360 C.2       1 SUB1        0.228
      4 O          21.2070   64.2830   11.5750 O.2       1 SUB1       -0.391
      5 CB         19.2670   63.3180   13.6020 C.3       1 SUB1        0.016
      6 CG1        17.8730   63.1280   14.2140 C.3       1 SUB1       -0.046
      7 CG2        20.2800   62.4390   14.3650 C.3       1 SUB1       -0.055
      8 CD1        17.8840   63.3290   15.7380 C.3       1 SUB1       -0.065
      9 N          22.1570   65.2440   13.4020 N.am      1 SUB1       -0.265
     10 CA         23.5480   65.1770   12.9100 C.3       1 SUB1        0.084
     11 C          24.3560   64.0890   13.6030 C.2       1 SUB1        0.053
     12 O          24.1360   63.8290   14.8180 O.co2     1 SUB1       -0.564
     13 CB         24.2720   66.5240   13.0360 C.3       1 SUB1       -0.012
     14 CG1        23.6580   67.4450   14.1070 C.3       1 SUB1       -0.058
     15 CG2        25.7680   66.3410   13.2400 C.3       1 SUB1       -0.058
     16 OXT        24.8240   63.1690   12.8860 O.co2     1 SUB1       -0.564
     17 H11        19.2908   66.0188   11.8789 H         1 SUB1        0.201
     18 H21        19.8634   65.2510   14.4317 H         1 SUB1        0.110
     19 H51        19.2064   62.9163   12.5798 H         1 SUB1        0.038
     20 H61        17.5231   62.1090   13.9922 H         1 SUB1        0.027
     21 H62        17.1844   63.8582   13.7639 H         1 SUB1        0.027
     22 H71        21.2308   62.4116   13.8126 H         1 SUB1        0.024
     23 H72        19.8815   61.4181   14.4596 H         1 SUB1        0.024
     24 H73        20.4499   62.8606   15.3667 H         1 SUB1        0.024
     25 H81        18.5573   62.5921   16.2001 H         1 SUB1        0.023
     26 H82        16.8663   63.1941   16.1330 H         1 SUB1        0.023
     27 H83        18.2362   64.3446   15.9714 H         1 SUB1        0.023
     28 H91        21.9901   65.6786   14.2870 H         1 SUB1        0.190
     29 H101       23.5005   64.9242   11.8405 H         1 SUB1        0.078
     30 H131       24.1440   67.0383   12.0721 H         1 SUB1        0.035
     31 H141       22.6116   67.6628   13.8471 H         1 SUB1        0.024
     32 H142       24.2277   68.3849   14.1527 H         1 SUB1        0.024
     33 H143       23.6962   66.9451   15.0861 H         1 SUB1        0.024
     34 H151       25.9451   65.7742   14.1659 H         1 SUB1        0.024
     35 H152       26.2511   67.3264   13.3153 H         1 SUB1        0.024
     36 H153       26.1898   65.7901   12.3864 H         1 SUB1        0.024
     37 H12        18.3995   66.2995   13.2339 H         1 SUB1        0.201
     38 H13        18.0791   64.9856   12.2955 H         1 SUB1        0.201
@<TRIPOS>BOND
     1    3    2 1  
     2    2    5 1  
     3    2    1 1  
     4    5    6 1  
     5    5    7 1  
     6    6    8 1  
     7    3    4 2  
     8   10   11 1  
     9   10   13 1  
    10    9   10 1  
    11   13   14 1  
    12   13   15 1  
    13   11   16 2  
    14   11   12 2  
    15    3    9 am 
    16    1   17 1  
    17    2   18 1  
    18    5   19 1  
    19    6   20 1  
    20    6   21 1  
    21    7   22 1  
    22    7   23 1  
    23    7   24 1  
    24    8   25 1  
    25    8   26 1  
    26    8   27 1  
    27    9   28 1  
    28   10   29 1  
    29   13   30 1  
    30   14   31 1  
    31   14   32 1  
    32   14   33 1  
    33   15   34 1  
    34   15   35 1  
    35   15   36 1  
    36    1   37 1  
    37    1   38 1  
@<TRIPOS>SUBSTRUCTURE
     1 SUB1        1 GROUP

