2tpi_ligand
  -I-interpret- 

 38 37  0  0  0  0  0  0  0  0999 V2000
   18.8070   65.5860   12.6500 N   0  3  0  0  0
   19.7550   64.7920   13.4380 C   0  0  0  0  0
   21.1160   64.7600   12.7360 C   0  0  0  0  0
   21.2070   64.2830   11.5750 O   0  0  0  0  0
   19.2670   63.3180   13.6020 C   0  0  0  0  0
   17.8730   63.1280   14.2140 C   0  0  0  0  0
   20.2800   62.4390   14.3650 C   0  0  0  0  0
   17.8840   63.3290   15.7380 C   0  0  0  0  0
   22.1570   65.2440   13.4020 N   0  0  0  0  0
   23.5480   65.1770   12.9100 C   0  0  0  0  0
   24.3560   64.0890   13.6030 C   0  0  0  0  0
   24.1360   63.8290   14.8180 O   0  5  0  0  0
   24.2720   66.5240   13.0360 C   0  0  0  0  0
   23.6580   67.4450   14.1070 C   0  0  0  0  0
   25.7680   66.3410   13.2400 C   0  0  0  0  0
   24.8240   63.1690   12.8860 O   0  0  0  0  0
   19.2908   66.0188   11.8789 H   0  0  0  0  0
   19.8634   65.2510   14.4317 H   0  0  0  0  0
   19.2064   62.9163   12.5798 H   0  0  0  0  0
   17.5231   62.1090   13.9922 H   0  0  0  0  0
   17.1844   63.8582   13.7639 H   0  0  0  0  0
   21.2308   62.4116   13.8126 H   0  0  0  0  0
   19.8815   61.4181   14.4596 H   0  0  0  0  0
   20.4499   62.8606   15.3667 H   0  0  0  0  0
   18.5573   62.5921   16.2001 H   0  0  0  0  0
   16.8663   63.1941   16.1330 H   0  0  0  0  0
   18.2362   64.3446   15.9714 H   0  0  0  0  0
   21.9901   65.6786   14.2870 H   0  0  0  0  0
   23.5005   64.9242   11.8405 H   0  0  0  0  0
   24.1440   67.0383   12.0721 H   0  0  0  0  0
   22.6116   67.6628   13.8471 H   0  0  0  0  0
   24.2277   68.3849   14.1527 H   0  0  0  0  0
   23.6962   66.9451   15.0861 H   0  0  0  0  0
   25.9451   65.7742   14.1659 H   0  0  0  0  0
   26.2511   67.3264   13.3153 H   0  0  0  0  0
   26.1898   65.7901   12.3864 H   0  0  0  0  0
   18.3995   66.2995   13.2339 H   0  0  0  0  0
   18.0791   64.9856   12.2955 H   0  0  0  0  0
  3  2  1  0  0  0
  2  5  1  0  0  0
  2  1  1  0  0  0
  5  6  1  0  0  0
  5  7  1  0  0  0
  6  8  1  0  0  0
  3  4  2  0  0  0
 10 11  1  0  0  0
 10 13  1  0  0  0
  9 10  1  0  0  0
 13 14  1  0  0  0
 13 15  1  0  0  0
 11 16  2  0  0  0
 11 12  1  0  0  0
  3  9  1  0  0  0
  1 17  1  0  0  0
  2 18  1  0  0  0
  5 19  1  0  0  0
  6 20  1  0  0  0
  6 21  1  0  0  0
  7 22  1  0  0  0
  7 23  1  0  0  0
  7 24  1  0  0  0
  8 25  1  0  0  0
  8 26  1  0  0  0
  8 27  1  0  0  0
  9 28  1  0  0  0
 10 29  1  0  0  0
 13 30  1  0  0  0
 14 31  1  0  0  0
 14 32  1  0  0  0
 14 33  1  0  0  0
 15 34  1  0  0  0
 15 35  1  0  0  0
 15 36  1  0  0  0
  1 37  1  0  0  0
  1 38  1  0  0  0
M  END
$$$$
