### 
### Created by X-TOOL on Mon Oct 24 22:35:29 2005
### 

@<TRIPOS>MOLECULE
1b4z_ligand
   59    58     1     0     0
SMALL
GAST_HUCK


@<TRIPOS>ATOM
      1 N           6.8430   16.4610   15.1510 N.4       1 SUB1        0.238
      2 CA          6.3600   17.7530   14.5610 C.3       1 SUB1        0.065
      3 C           5.1230   18.2170   15.3170 C.2       1 SUB1        0.227
      4 O           4.3410   17.3900   15.8060 O.2       1 SUB1       -0.391
      5 CB          6.1290   17.6090   13.0430 C.3       1 SUB1        0.008
      6 CG          5.1650   16.5030   12.6280 C.3       1 SUB1       -0.041
      7 CD          5.0720   16.4120   11.0800 C.3       1 SUB1       -0.012
      8 CE          6.3360   15.7660   10.4920 C.3       1 SUB1       -0.035
      9 NZ          6.5170   14.3530   10.9100 N.4       1 SUB1        0.219
     10 N           4.9300   19.5190   15.4010 N.am      1 SUB1       -0.258
     11 CA          3.7770   20.0580   16.1510 C.3       1 SUB1        0.142
     12 C           2.5030   20.0030   15.3290 C.2       1 SUB1        0.208
     13 O           2.5070   20.2760   14.1350 O.2       1 SUB1       -0.394
     14 CB          4.0510   21.5350   16.4890 C.3       1 SUB1        0.027
     15 CG          4.9830   21.6400   17.6930 C.2       1 SUB1        0.032
     16 OD1         4.7230   21.1780   18.8070 O.co2     1 SUB1       -0.566
     17 OD2         6.0800   22.1670   17.4940 O.co2     1 SUB1       -0.566
     18 N           1.3980   19.5840   15.9740 N.am      1 SUB1       -0.268
     19 CA          0.1230   19.5560   15.2960 C.3       1 SUB1        0.081
     20 C          -0.9150   20.3790   16.0710 C.2       1 SUB1        0.053
     21 O          -1.8880   20.7810   15.3890 O.co2     1 SUB1       -0.564
     22 CB         -0.4060   18.1220   15.1890 C.3       1 SUB1       -0.018
     23 CG         -1.4530   18.1470   14.0330 C.3       1 SUB1       -0.043
     24 CD         -2.1310   16.7980   14.0290 C.3       1 SUB1       -0.012
     25 CE         -3.4120   16.8340   13.1800 C.3       1 SUB1       -0.035
     26 NZ         -2.9850   16.6100   11.7730 N.4       1 SUB1        0.219
     27 OXT        -0.6910   20.7590   17.2370 O.co2     1 SUB1       -0.564
     28 H11         6.2435   16.1966   15.9170 H         1 SUB1        0.201
     29 H21         7.1440   18.5111   14.7043 H         1 SUB1        0.110
     30 H51         7.1012   17.4064   12.5699 H         1 SUB1        0.035
     31 H52         5.7310   18.5637   12.6686 H         1 SUB1        0.035
     32 H61         4.1676   16.7199   13.0380 H         1 SUB1        0.027
     33 H62         5.5239   15.5423   13.0258 H         1 SUB1        0.027
     34 H71         4.9591   17.4247   10.6658 H         1 SUB1        0.032
     35 H72         4.1966   15.8045   10.8068 H         1 SUB1        0.032
     36 H81         7.2111   16.3439   10.8238 H         1 SUB1        0.081
     37 H82         6.2685   15.8004    9.3946 H         1 SUB1        0.081
     38 H91         6.5991   14.3074   11.9136 H         1 SUB1        0.199
     39 H92         7.3535   13.9820   10.4873 H         1 SUB1        0.199
     40 H93         5.7213   13.8101   10.6130 H         1 SUB1        0.199
     41 H101        5.5684   20.1456   14.9540 H         1 SUB1        0.189
     42 H111        3.6424   19.4781   17.0760 H         1 SUB1        0.084
     43 H141        3.0999   22.0362   16.7219 H         1 SUB1        0.053
     44 H142        4.5208   22.0241   15.6230 H         1 SUB1        0.053
     45 H181        1.4604   19.2905   16.9279 H         1 SUB1        0.190
     46 H191        0.2467   19.9768   14.2873 H         1 SUB1        0.078
     47 H221       -0.8826   17.8170   16.1323 H         1 SUB1        0.032
     48 H222        0.4129   17.4273   14.9506 H         1 SUB1        0.032
     49 H231       -0.9501   18.3208   13.0703 H         1 SUB1        0.027
     50 H232       -2.1926   18.9420   14.2091 H         1 SUB1        0.027
     51 H241       -2.3903   16.5215   15.0616 H         1 SUB1        0.032
     52 H242       -1.4421   16.0492   13.6110 H         1 SUB1        0.032
     53 H251       -3.9063   17.8119   13.2771 H         1 SUB1        0.081
     54 H252       -4.1034   16.0404   13.4994 H         1 SUB1        0.081
     55 H261       -2.3535   17.3440   11.4926 H         1 SUB1        0.199
     56 H262       -3.7939   16.6148   11.1715 H         1 SUB1        0.199
     57 H263       -2.5182   15.7195   11.7012 H         1 SUB1        0.199
     58 H12         7.7862   16.5769   15.4871 H         1 SUB1        0.201
     59 H13         6.8237   15.7414   14.4454 H         1 SUB1        0.201
@<TRIPOS>BOND
     1    2    1 1  
     2    2    5 1  
     3    3    2 1  
     4    3    4 2  
     5    5    6 1  
     6    6    7 1  
     7    7    8 1  
     8    8    9 1  
     9   11   10 1  
    10   11   14 1  
    11   12   11 1  
    12   12   13 2  
    13   14   15 1  
    14   15   17 2  
    15   15   16 2  
    16   10    3 am 
    17   18   19 1  
    18   19   22 1  
    19   19   20 1  
    20   20   21 2  
    21   20   27 2  
    22   22   23 1  
    23   23   24 1  
    24   24   25 1  
    25   25   26 1  
    26   12   18 am 
    27    1   28 1  
    28    2   29 1  
    29    5   30 1  
    30    5   31 1  
    31    6   32 1  
    32    6   33 1  
    33    7   34 1  
    34    7   35 1  
    35    8   36 1  
    36    8   37 1  
    37    9   38 1  
    38    9   39 1  
    39    9   40 1  
    40   10   41 1  
    41   11   42 1  
    42   14   43 1  
    43   14   44 1  
    44   18   45 1  
    45   19   46 1  
    46   22   47 1  
    47   22   48 1  
    48   23   49 1  
    49   23   50 1  
    50   24   51 1  
    51   24   52 1  
    52   25   53 1  
    53   25   54 1  
    54   26   55 1  
    55   26   56 1  
    56   26   57 1  
    57    1   58 1  
    58    1   59 1  
@<TRIPOS>SUBSTRUCTURE
     1 SUB1        1 GROUP

