1b4z_ligand
  -I-interpret- 

 59 58  0  0  0  0  0  0  0  0999 V2000
    6.8430   16.4610   15.1510 N   0  3  0  0  0
    6.3600   17.7530   14.5610 C   0  0  0  0  0
    5.1230   18.2170   15.3170 C   0  0  0  0  0
    4.3410   17.3900   15.8060 O   0  0  0  0  0
    6.1290   17.6090   13.0430 C   0  0  0  0  0
    5.1650   16.5030   12.6280 C   0  0  0  0  0
    5.0720   16.4120   11.0800 C   0  0  0  0  0
    6.3360   15.7660   10.4920 C   0  0  0  0  0
    6.5170   14.3530   10.9100 N   0  3  0  0  0
    4.9300   19.5190   15.4010 N   0  0  0  0  0
    3.7770   20.0580   16.1510 C   0  0  0  0  0
    2.5030   20.0030   15.3290 C   0  0  0  0  0
    2.5070   20.2760   14.1350 O   0  0  0  0  0
    4.0510   21.5350   16.4890 C   0  0  0  0  0
    4.9830   21.6400   17.6930 C   0  0  0  0  0
    4.7230   21.1780   18.8070 O   0  5  0  0  0
    6.0800   22.1670   17.4940 O   0  0  0  0  0
    1.3980   19.5840   15.9740 N   0  0  0  0  0
    0.1230   19.5560   15.2960 C   0  0  0  0  0
   -0.9150   20.3790   16.0710 C   0  0  0  0  0
   -1.8880   20.7810   15.3890 O   0  5  0  0  0
   -0.4060   18.1220   15.1890 C   0  0  0  0  0
   -1.4530   18.1470   14.0330 C   0  0  0  0  0
   -2.1310   16.7980   14.0290 C   0  0  0  0  0
   -3.4120   16.8340   13.1800 C   0  0  0  0  0
   -2.9850   16.6100   11.7730 N   0  3  0  0  0
   -0.6910   20.7590   17.2370 O   0  0  0  0  0
    6.2435   16.1966   15.9170 H   0  0  0  0  0
    7.1440   18.5111   14.7043 H   0  0  0  0  0
    7.1012   17.4064   12.5699 H   0  0  0  0  0
    5.7310   18.5637   12.6686 H   0  0  0  0  0
    4.1676   16.7199   13.0380 H   0  0  0  0  0
    5.5239   15.5423   13.0258 H   0  0  0  0  0
    4.9591   17.4247   10.6658 H   0  0  0  0  0
    4.1966   15.8045   10.8068 H   0  0  0  0  0
    7.2111   16.3439   10.8238 H   0  0  0  0  0
    6.2685   15.8004    9.3946 H   0  0  0  0  0
    6.5991   14.3074   11.9136 H   0  0  0  0  0
    7.3535   13.9820   10.4873 H   0  0  0  0  0
    5.7213   13.8101   10.6130 H   0  0  0  0  0
    5.5684   20.1456   14.9540 H   0  0  0  0  0
    3.6424   19.4781   17.0760 H   0  0  0  0  0
    3.0999   22.0362   16.7219 H   0  0  0  0  0
    4.5208   22.0241   15.6230 H   0  0  0  0  0
    1.4604   19.2905   16.9279 H   0  0  0  0  0
    0.2467   19.9768   14.2873 H   0  0  0  0  0
   -0.8826   17.8170   16.1323 H   0  0  0  0  0
    0.4129   17.4273   14.9506 H   0  0  0  0  0
   -0.9501   18.3208   13.0703 H   0  0  0  0  0
   -2.1926   18.9420   14.2091 H   0  0  0  0  0
   -2.3903   16.5215   15.0616 H   0  0  0  0  0
   -1.4421   16.0492   13.6110 H   0  0  0  0  0
   -3.9063   17.8119   13.2771 H   0  0  0  0  0
   -4.1034   16.0404   13.4994 H   0  0  0  0  0
   -2.3535   17.3440   11.4926 H   0  0  0  0  0
   -3.7939   16.6148   11.1715 H   0  0  0  0  0
   -2.5182   15.7195   11.7012 H   0  0  0  0  0
    7.7862   16.5769   15.4871 H   0  0  0  0  0
    6.8237   15.7414   14.4454 H   0  0  0  0  0
  2  1  1  0  0  0
  2  5  1  0  0  0
  3  2  1  0  0  0
  3  4  2  0  0  0
  5  6  1  0  0  0
  6  7  1  0  0  0
  7  8  1  0  0  0
  8  9  1  0  0  0
 11 10  1  0  0  0
 11 14  1  0  0  0
 12 11  1  0  0  0
 12 13  2  0  0  0
 14 15  1  0  0  0
 15 17  2  0  0  0
 15 16  1  0  0  0
 10  3  1  0  0  0
 18 19  1  0  0  0
 19 22  1  0  0  0
 19 20  1  0  0  0
 20 21  1  0  0  0
 20 27  2  0  0  0
 22 23  1  0  0  0
 23 24  1  0  0  0
 24 25  1  0  0  0
 25 26  1  0  0  0
 12 18  1  0  0  0
  1 28  1  0  0  0
  2 29  1  0  0  0
  5 30  1  0  0  0
  5 31  1  0  0  0
  6 32  1  0  0  0
  6 33  1  0  0  0
  7 34  1  0  0  0
  7 35  1  0  0  0
  8 36  1  0  0  0
  8 37  1  0  0  0
  9 38  1  0  0  0
  9 39  1  0  0  0
  9 40  1  0  0  0
 10 41  1  0  0  0
 11 42  1  0  0  0
 14 43  1  0  0  0
 14 44  1  0  0  0
 18 45  1  0  0  0
 19 46  1  0  0  0
 22 47  1  0  0  0
 22 48  1  0  0  0
 23 49  1  0  0  0
 23 50  1  0  0  0
 24 51  1  0  0  0
 24 52  1  0  0  0
 25 53  1  0  0  0
 25 54  1  0  0  0
 26 55  1  0  0  0
 26 56  1  0  0  0
 26 57  1  0  0  0
  1 58  1  0  0  0
  1 59  1  0  0  0
M  END
$$$$
