2cht_ligand
  -I-interpret- 

 26 27  0  0  0  0  0  0  0  0999 V2000
   33.0764   30.6414   43.6049 H   0  0  0  0  0
   32.2824   32.6977   44.5153 H   0  0  0  0  0
   30.4366   30.5576   47.7754 H   0  0  0  0  0
   32.1521   30.3991   47.2669 H   0  0  0  0  0
   31.3520   28.7503   43.9810 H   0  0  0  0  0
   30.7331   28.5015   46.4958 H   0  0  0  0  0
   29.4640   32.9835   45.1797 H   0  0  0  0  0
   29.0017   32.2988   46.7748 H   0  0  0  0  0
   27.8231   30.9279   45.4456 H   0  0  0  0  0
   33.5337   28.4416   44.6961 H   0  0  0  0  0
   32.3340   30.6110   44.4010 C   0  0  0  0  0
   31.9290   31.7710   44.9650 C   0  0  0  0  0
   31.0240   31.8830   46.1710 C   0  0  0  0  0
   31.1220   30.5570   46.9150 C   0  0  0  0  0
   31.7890   29.2790   44.8410 C   0  0  0  0  0
   30.7280   29.4460   45.9320 C   0  0  0  0  0
   29.5430   32.1050   45.8370 C   0  0  0  0  0
   28.8770   30.9100   45.1310 C   0  0  0  0  0
   31.4330   33.0760   47.0430 C   0  0  0  0  0
   28.8840   31.0500   43.6150 C   0  0  0  0  0
   32.8700   28.5500   45.3670 O   0  0  0  0  0
   29.0480   30.0550   42.9280 O   0  0  0  0  0
   28.7280   32.1610   43.1250 O   0  5  0  0  0
   31.6610   34.1670   46.5250 O   0  5  0  0  0
   31.5290   32.9290   48.2460 O   0  0  0  0  0
   29.3800   29.6340   45.5020 O   0  0  0  0  0
 11  1  1  0  0  0
 12  2  1  0  0  0
 14  3  1  0  0  0
 14  4  1  0  0  0
 15  5  1  0  0  0
 16  6  1  0  0  0
 17  7  1  0  0  0
 17  8  1  0  0  0
 18  9  1  0  0  0
 21 10  1  0  0  0
 15 11  1  0  0  0
 11 12  2  0  0  0
 13 12  1  0  0  0
 13 19  1  0  0  0
 13 17  1  0  0  0
 14 13  1  0  0  0
 16 14  1  0  0  0
 26 16  1  0  0  0
 16 15  1  0  0  0
 15 21  1  0  0  0
 26 18  1  0  0  0
 18 20  1  0  0  0
 18 17  1  0  0  0
 20 23  1  0  0  0
 20 22  2  0  0  0
 19 25  2  0  0  0
 19 24  1  0  0  0
M  END
$$$$
