### 
### Created by X-TOOL on Tue Oct 25 01:24:47 2005
### 

@<TRIPOS>MOLECULE
2cht_ligand
   26    27     1     0     0
SMALL
GAST_HUCK


@<TRIPOS>ATOM
      1 H111       33.0764   30.6414   43.6049 H         1 SUB1        0.139
      2 H121       32.2824   32.6977   44.5153 H         1 SUB1        0.055
      3 H141       30.4366   30.5576   47.7754 H         1 SUB1        0.005
      4 H142       32.1521   30.3991   47.2669 H         1 SUB1        0.005
      5 H151       31.3520   28.7503   43.9810 H         1 SUB1        0.103
      6 H161       30.7331   28.5015   46.4958 H         1 SUB1        0.066
      7 H171       29.4640   32.9835   45.1797 H         1 SUB1        0.008
      8 H172       29.0017   32.2988   46.7748 H         1 SUB1        0.008
      9 H181       27.8231   30.9279   45.4456 H         1 SUB1        0.080
     10 H211       33.5337   28.4416   44.6961 H         1 SUB1        0.218
     11 C'         32.3340   30.6110   44.4010 C.2       1 SUB1        0.005
     12 C1         31.9290   31.7710   44.9650 C.2       1 SUB1       -0.105
     13 C2         31.0240   31.8830   46.1710 C.3       1 SUB1       -0.031
     14 C3         31.1220   30.5570   46.9150 C.3       1 SUB1       -0.075
     15 C4         31.7890   29.2790   44.8410 C.3       1 SUB1        0.148
     16 C5         30.7280   29.4460   45.9320 C.3       1 SUB1        0.095
     17 C6         29.5430   32.1050   45.8370 C.3       1 SUB1       -0.071
     18 C7         28.8770   30.9100   45.1310 C.3       1 SUB1        0.081
     19 C8         31.4330   33.0760   47.0430 C.2       1 SUB1        0.057
     20 C9         28.8840   31.0500   43.6150 C.2       1 SUB1        0.055
     21 O1         32.8700   28.5500   45.3670 O.3       1 SUB1       -0.358
     22 O2         29.0480   30.0550   42.9280 O.co2     1 SUB1       -0.564
     23 O3         28.7280   32.1610   43.1250 O.co2     1 SUB1       -0.564
     24 O4         31.6610   34.1670   46.5250 O.co2     1 SUB1       -0.502
     25 O5         31.5290   32.9290   48.2460 O.co2     1 SUB1       -0.502
     26 O'         29.3800   29.6340   45.5020 O.3       1 SUB1       -0.354
@<TRIPOS>BOND
     1   11    1 1  
     2   12    2 1  
     3   14    3 1  
     4   14    4 1  
     5   15    5 1  
     6   16    6 1  
     7   17    7 1  
     8   17    8 1  
     9   18    9 1  
    10   21   10 1  
    11   15   11 1  
    12   11   12 2  
    13   13   12 1  
    14   13   19 1  
    15   13   17 1  
    16   14   13 1  
    17   16   14 1  
    18   26   16 1  
    19   16   15 1  
    20   15   21 1  
    21   26   18 1  
    22   18   20 1  
    23   18   17 1  
    24   20   23 2  
    25   20   22 2  
    26   19   25 2  
    27   19   24 2  
@<TRIPOS>SUBSTRUCTURE
     1 SUB1        1 GROUP

