### 
### Created by X-TOOL on Sun Jun  3 11:23:35 2007
### 

@<TRIPOS>MOLECULE
2fgv_ligand
   99   103     1     0     0
SMALL
GAST_HUCK


@<TRIPOS>ATOM
      1 O          18.8700   -5.7580   11.7800 O.2       1 SUB1       -0.376
      2 C          19.1110   -6.2710   12.8630 C.2       1 SUB1        0.229
      3 N1         20.1670   -8.0980   14.1680 N.ar      1 SUB1       -0.274
      4 C2         19.9340   -7.5150   12.9700 C.ar      1 SUB1        0.122
      5 C3         20.4480   -8.0640   11.8050 C.ar      1 SUB1       -0.014
      6 C4         21.2080   -9.2210   11.8830 C.ar      1 SUB1       -0.031
      7 C4A        21.4460   -9.8060   13.1130 C.ar      1 SUB1        0.010
      8 C5         22.2110  -10.9660   13.1750 C.ar      1 SUB1       -0.044
      9 C6         22.4580  -11.5700   14.3980 C.ar      1 SUB1       -0.055
     10 C7         21.9330  -10.9940   15.5470 C.ar      1 SUB1       -0.054
     11 C8         21.1660   -9.8340   15.4800 C.ar      1 SUB1       -0.037
     12 C8A        20.9140   -9.2240   14.2560 C.ar      1 SUB1        0.053
     13 N          18.5410   -5.5750   13.8430 N.am      1 SUB1       -0.260
     14 CA         17.7700   -4.4790   14.3540 C.3       1 SUB1        0.147
     15 C          18.6100   -3.5830   15.2210 C.2       1 SUB1        0.205
     16 O          18.5820   -3.7060   16.4270 O.2       1 SUB1       -0.394
     17 CB         16.4340   -4.9060   14.9250 C.3       1 SUB1        0.077
     18 CG         15.7120   -5.5660   13.7760 C.2       1 SUB1        0.178
     19 OD1        15.3510   -4.9030   12.8210 O.2       1 SUB1       -0.397
     20 ND2        15.5220   -6.8820   13.8570 N.am      1 SUB1       -0.301
     21 C          19.7960   -0.2620   14.8820 C.3       1 SUB1        0.093
     22 O          19.9750    0.1130   13.6100 O.3       1 SUB1       -0.388
     23 CA         20.1830   -1.6790   15.2030 C.3       1 SUB1        0.079
     24 N          19.3300   -2.6650   14.5610 N.am      1 SUB1       -0.277
     25 CB         21.6410   -1.8640   14.7870 C.3       1 SUB1        0.006
     26 CG         22.1010   -3.3000   14.8710 C.ar      1 SUB1       -0.041
     27 CD1        22.4900   -3.8380   16.0920 C.ar      1 SUB1       -0.060
     28 CD2        22.1450   -4.0690   13.7140 C.ar      1 SUB1       -0.060
     29 CE1        22.9100   -5.1640   16.1660 C.ar      1 SUB1       -0.069
     30 CE2        22.5680   -5.3930   13.7920 C.ar      1 SUB1       -0.069
     31 CZ         22.9490   -5.9360   15.0130 C.ar      1 SUB1       -0.069
     32 N1         19.3010    0.7580   17.0120 N.3       1 SUB1       -0.280
     33 CM         20.0660    0.6710   15.8190 C.3       1 SUB1        0.030
     34 C2         20.0680    1.4420   18.0620 C.3       1 SUB1        0.101
     35 C          21.3690    0.7550   18.3770 C.2       1 SUB1        0.194
     36 O          21.4120   -0.4620   18.5070 O.2       1 SUB1       -0.395
     37 C3         19.2850    1.5310   19.3710 C.3       1 SUB1       -0.017
     38 C3A        17.9750    2.2900   19.2090 C.3       1 SUB1       -0.034
     39 C4         17.1590    2.2740   20.5010 C.3       1 SUB1       -0.050
     40 C5         16.4760    0.9420   20.7850 C.3       1 SUB1       -0.053
     41 C6         15.6610    0.5000   19.5780 C.3       1 SUB1       -0.053
     42 C7         16.5840    0.3680   18.3720 C.3       1 SUB1       -0.049
     43 C7A        17.2210    1.7140   18.0180 C.3       1 SUB1       -0.025
     44 C8         18.0790    1.5410   16.7690 C.3       1 SUB1        0.005
     45 N          22.4050    1.5870   18.5420 N.am      1 SUB1       -0.280
     46 C          23.7600    1.2220   18.9110 C.3       1 SUB1        0.045
     47 C1         24.6140    2.4910   19.0120 C.3       1 SUB1       -0.040
     48 C2         23.7560    0.5160   20.2620 C.3       1 SUB1       -0.040
     49 C3         24.3100    0.3130   17.8100 C.3       1 SUB1       -0.040
     50 H          20.2571   -7.5924   10.8410 H         1 SUB1        0.073
     51 H          21.6168   -9.6683   10.9770 H         1 SUB1        0.077
     52 H          22.6166  -11.4004   12.2613 H         1 SUB1        0.066
     53 H          23.0538  -12.4809   14.4566 H         1 SUB1        0.065
     54 H          22.1240  -11.4566   16.5153 H         1 SUB1        0.066
     55 H          20.7599   -9.4006   16.3940 H         1 SUB1        0.065
     56 H          18.7812   -6.1056   14.6803 H         1 SUB1        0.188
     57 H          17.4701   -3.8484   13.5171 H         1 SUB1        0.083
     58 H          15.8742   -4.0586   15.3209 H         1 SUB1        0.055
     59 H          16.5537   -5.5840   15.7701 H         1 SUB1        0.055
     60 H          15.0556   -7.3777   13.0973 H         1 SUB1        0.181
     61 H          15.8429   -7.3940   14.6788 H         1 SUB1        0.181
     62 H          18.7102   -0.3155   14.9606 H         1 SUB1        0.063
     63 H          19.7010    1.0271   13.5055 H         1 SUB1        0.210
     64 H          20.0559   -1.8438   16.2730 H         1 SUB1        0.060
     65 H          19.2757   -2.6580   13.5425 H         1 SUB1        0.186
     66 H          22.2576   -1.2774   15.4681 H         1 SUB1        0.045
     67 H          21.7329   -1.5461   13.7484 H         1 SUB1        0.045
     68 H          22.4664   -3.2225   16.9913 H         1 SUB1        0.056
     69 H          21.8515   -3.6400   12.7559 H         1 SUB1        0.056
     70 H          23.2062   -5.5928   17.1233 H         1 SUB1        0.060
     71 H          22.6005   -6.0063   12.8915 H         1 SUB1        0.060
     72 H          23.2801   -6.9732   15.0657 H         1 SUB1        0.056
     73 H          19.8711    1.6162   15.3124 H         1 SUB1        0.045
     74 H          21.0662    0.4125   16.1666 H         1 SUB1        0.045
     75 H          20.2633    2.4353   17.6579 H         1 SUB1        0.071
     76 H          19.8983    2.0652   20.0967 H         1 SUB1        0.031
     77 H          19.0509    0.5170   19.6951 H         1 SUB1        0.031
     78 H          18.1752    3.3424   19.0077 H         1 SUB1        0.031
     79 H          16.3750    3.0243   20.3980 H         1 SUB1        0.027
     80 H          17.8496    2.4653   21.3224 H         1 SUB1        0.027
     81 H          15.8111    1.0578   21.6409 H         1 SUB1        0.026
     82 H          17.2360    0.1898   20.9967 H         1 SUB1        0.026
     83 H          14.8877    1.2389   19.3680 H         1 SUB1        0.026
     84 H          15.1907   -0.4611   19.7859 H         1 SUB1        0.026
     85 H          15.9983    0.0237   17.5197 H         1 SUB1        0.027
     86 H          17.3761   -0.3406   18.6141 H         1 SUB1        0.027
     87 H          16.4521    2.4506   17.7849 H         1 SUB1        0.032
     88 H          17.4837    1.0049   16.0299 H         1 SUB1        0.043
     89 H          18.3824    2.5334   16.4355 H         1 SUB1        0.043
     90 H          22.2230    2.5795   18.3930 H         1 SUB1        0.186
     91 H          24.6212    3.0002   18.0483 H         1 SUB1        0.025
     92 H          24.1930    3.1513   19.7702 H         1 SUB1        0.025
     93 H          25.6329    2.2206   19.2891 H         1 SUB1        0.025
     94 H          23.3438    1.1839   21.0183 H         1 SUB1        0.025
     95 H          23.1447   -0.3842   20.1983 H         1 SUB1        0.025
     96 H          24.7767    0.2452   20.5320 H         1 SUB1        0.025
     97 H          23.6849   -0.5763   17.7288 H         1 SUB1        0.025
     98 H          24.3053    0.8498   16.8613 H         1 SUB1        0.025
     99 H          25.3302    0.0202   18.0582 H         1 SUB1        0.025
@<TRIPOS>BOND
     1    2    1 2  
     2    2    4 1  
     3   13    2 am 
     4    4    3 ar 
     5    3   12 ar 
     6    4    5 ar 
     7    5    6 ar 
     8    6    7 ar 
     9    7    8 ar 
    10   12    7 ar 
    11    8    9 ar 
    12   10    9 ar 
    13   11   10 ar 
    14   12   11 ar 
    15   14   13 1  
    16   15   14 1  
    17   14   17 1  
    18   15   16 2  
    19   24   15 am 
    20   17   18 1  
    21   18   19 2  
    22   18   20 am 
    23   21   22 1  
    24   23   21 1  
    25   21   33 1  
    26   23   24 1  
    27   23   25 1  
    28   25   26 1  
    29   26   27 ar 
    30   26   28 ar 
    31   27   29 ar 
    32   28   30 ar 
    33   29   31 ar 
    34   30   31 ar 
    35   33   32 1  
    36   32   34 1  
    37   32   44 1  
    38   34   35 1  
    39   34   37 1  
    40   35   36 2  
    41   35   45 am 
    42   37   38 1  
    43   38   39 1  
    44   38   43 1  
    45   39   40 1  
    46   40   41 1  
    47   41   42 1  
    48   42   43 1  
    49   43   44 1  
    50   45   46 1  
    51   46   47 1  
    52   46   48 1  
    53   46   49 1  
    54    5   50 1  
    55    6   51 1  
    56    8   52 1  
    57    9   53 1  
    58   10   54 1  
    59   11   55 1  
    60   13   56 1  
    61   14   57 1  
    62   17   58 1  
    63   17   59 1  
    64   20   60 1  
    65   20   61 1  
    66   21   62 1  
    67   22   63 1  
    68   23   64 1  
    69   24   65 1  
    70   25   66 1  
    71   25   67 1  
    72   27   68 1  
    73   28   69 1  
    74   29   70 1  
    75   30   71 1  
    76   31   72 1  
    77   33   73 1  
    78   33   74 1  
    79   34   75 1  
    80   37   76 1  
    81   37   77 1  
    82   38   78 1  
    83   39   79 1  
    84   39   80 1  
    85   40   81 1  
    86   40   82 1  
    87   41   83 1  
    88   41   84 1  
    89   42   85 1  
    90   42   86 1  
    91   43   87 1  
    92   44   88 1  
    93   44   89 1  
    94   45   90 1  
    95   47   91 1  
    96   47   92 1  
    97   47   93 1  
    98   48   94 1  
    99   48   95 1  
   100   48   96 1  
   101   49   97 1  
   102   49   98 1  
   103   49   99 1  
@<TRIPOS>SUBSTRUCTURE
     1 SUB1        1 GROUP

