2fgv_ligand
  -I-interpret- 

 99103  0  0  0  0  0  0  0  0999 V2000
   18.8700   -5.7580   11.7800 O   0  0  0  0  0
   19.1110   -6.2710   12.8630 C   0  0  0  0  0
   20.1670   -8.0980   14.1680 N   0  0  0  0  0
   19.9340   -7.5150   12.9700 C   0  0  0  0  0
   20.4480   -8.0640   11.8050 C   0  0  0  0  0
   21.2080   -9.2210   11.8830 C   0  0  0  0  0
   21.4460   -9.8060   13.1130 C   0  0  0  0  0
   22.2110  -10.9660   13.1750 C   0  0  0  0  0
   22.4580  -11.5700   14.3980 C   0  0  0  0  0
   21.9330  -10.9940   15.5470 C   0  0  0  0  0
   21.1660   -9.8340   15.4800 C   0  0  0  0  0
   20.9140   -9.2240   14.2560 C   0  0  0  0  0
   18.5410   -5.5750   13.8430 N   0  0  0  0  0
   17.7700   -4.4790   14.3540 C   0  0  0  0  0
   18.6100   -3.5830   15.2210 C   0  0  0  0  0
   18.5820   -3.7060   16.4270 O   0  0  0  0  0
   16.4340   -4.9060   14.9250 C   0  0  0  0  0
   15.7120   -5.5660   13.7760 C   0  0  0  0  0
   15.3510   -4.9030   12.8210 O   0  0  0  0  0
   15.5220   -6.8820   13.8570 N   0  0  0  0  0
   19.7960   -0.2620   14.8820 C   0  0  0  0  0
   19.9750    0.1130   13.6100 O   0  0  0  0  0
   20.1830   -1.6790   15.2030 C   0  0  0  0  0
   19.3300   -2.6650   14.5610 N   0  0  0  0  0
   21.6410   -1.8640   14.7870 C   0  0  0  0  0
   22.1010   -3.3000   14.8710 C   0  0  0  0  0
   22.4900   -3.8380   16.0920 C   0  0  0  0  0
   22.1450   -4.0690   13.7140 C   0  0  0  0  0
   22.9100   -5.1640   16.1660 C   0  0  0  0  0
   22.5680   -5.3930   13.7920 C   0  0  0  0  0
   22.9490   -5.9360   15.0130 C   0  0  0  0  0
   19.3010    0.7580   17.0120 N   0  0  0  0  0
   20.0660    0.6710   15.8190 C   0  0  0  0  0
   20.0680    1.4420   18.0620 C   0  0  0  0  0
   21.3690    0.7550   18.3770 C   0  0  0  0  0
   21.4120   -0.4620   18.5070 O   0  0  0  0  0
   19.2850    1.5310   19.3710 C   0  0  0  0  0
   17.9750    2.2900   19.2090 C   0  0  0  0  0
   17.1590    2.2740   20.5010 C   0  0  0  0  0
   16.4760    0.9420   20.7850 C   0  0  0  0  0
   15.6610    0.5000   19.5780 C   0  0  0  0  0
   16.5840    0.3680   18.3720 C   0  0  0  0  0
   17.2210    1.7140   18.0180 C   0  0  0  0  0
   18.0790    1.5410   16.7690 C   0  0  0  0  0
   22.4050    1.5870   18.5420 N   0  0  0  0  0
   23.7600    1.2220   18.9110 C   0  0  0  0  0
   24.6140    2.4910   19.0120 C   0  0  0  0  0
   23.7560    0.5160   20.2620 C   0  0  0  0  0
   24.3100    0.3130   17.8100 C   0  0  0  0  0
   20.2571   -7.5924   10.8410 H   0  0  0  0  0
   21.6168   -9.6683   10.9770 H   0  0  0  0  0
   22.6166  -11.4004   12.2613 H   0  0  0  0  0
   23.0538  -12.4809   14.4566 H   0  0  0  0  0
   22.1240  -11.4566   16.5153 H   0  0  0  0  0
   20.7599   -9.4006   16.3940 H   0  0  0  0  0
   18.7812   -6.1056   14.6803 H   0  0  0  0  0
   17.4701   -3.8484   13.5171 H   0  0  0  0  0
   15.8742   -4.0586   15.3209 H   0  0  0  0  0
   16.5537   -5.5840   15.7701 H   0  0  0  0  0
   15.0556   -7.3777   13.0973 H   0  0  0  0  0
   15.8429   -7.3940   14.6788 H   0  0  0  0  0
   18.7102   -0.3155   14.9606 H   0  0  0  0  0
   19.7010    1.0271   13.5055 H   0  0  0  0  0
   20.0559   -1.8438   16.2730 H   0  0  0  0  0
   19.2757   -2.6580   13.5425 H   0  0  0  0  0
   22.2576   -1.2774   15.4681 H   0  0  0  0  0
   21.7329   -1.5461   13.7484 H   0  0  0  0  0
   22.4664   -3.2225   16.9913 H   0  0  0  0  0
   21.8515   -3.6400   12.7559 H   0  0  0  0  0
   23.2062   -5.5928   17.1233 H   0  0  0  0  0
   22.6005   -6.0063   12.8915 H   0  0  0  0  0
   23.2801   -6.9732   15.0657 H   0  0  0  0  0
   19.8711    1.6162   15.3124 H   0  0  0  0  0
   21.0662    0.4125   16.1666 H   0  0  0  0  0
   20.2633    2.4353   17.6579 H   0  0  0  0  0
   19.8983    2.0652   20.0967 H   0  0  0  0  0
   19.0509    0.5170   19.6951 H   0  0  0  0  0
   18.1752    3.3424   19.0077 H   0  0  0  0  0
   16.3750    3.0243   20.3980 H   0  0  0  0  0
   17.8496    2.4653   21.3224 H   0  0  0  0  0
   15.8111    1.0578   21.6409 H   0  0  0  0  0
   17.2360    0.1898   20.9967 H   0  0  0  0  0
   14.8877    1.2389   19.3680 H   0  0  0  0  0
   15.1907   -0.4611   19.7859 H   0  0  0  0  0
   15.9983    0.0237   17.5197 H   0  0  0  0  0
   17.3761   -0.3406   18.6141 H   0  0  0  0  0
   16.4521    2.4506   17.7849 H   0  0  0  0  0
   17.4837    1.0049   16.0299 H   0  0  0  0  0
   18.3824    2.5334   16.4355 H   0  0  0  0  0
   22.2230    2.5795   18.3930 H   0  0  0  0  0
   24.6212    3.0002   18.0483 H   0  0  0  0  0
   24.1930    3.1513   19.7702 H   0  0  0  0  0
   25.6329    2.2206   19.2891 H   0  0  0  0  0
   23.3438    1.1839   21.0183 H   0  0  0  0  0
   23.1447   -0.3842   20.1983 H   0  0  0  0  0
   24.7767    0.2452   20.5320 H   0  0  0  0  0
   23.6849   -0.5763   17.7288 H   0  0  0  0  0
   24.3053    0.8498   16.8613 H   0  0  0  0  0
   25.3302    0.0202   18.0582 H   0  0  0  0  0
  2  1  2  0  0  0
  2  4  1  0  0  0
 13  2  1  0  0  0
  4  3  4  0  0  0
  3 12  4  0  0  0
  4  5  4  0  0  0
  5  6  4  0  0  0
  6  7  4  0  0  0
  7  8  4  0  0  0
 12  7  4  0  0  0
  8  9  4  0  0  0
 10  9  4  0  0  0
 11 10  4  0  0  0
 12 11  4  0  0  0
 14 13  1  0  0  0
 15 14  1  0  0  0
 14 17  1  0  0  0
 15 16  2  0  0  0
 24 15  1  0  0  0
 17 18  1  0  0  0
 18 19  2  0  0  0
 18 20  1  0  0  0
 21 22  1  0  0  0
 23 21  1  0  0  0
 21 33  1  0  0  0
 23 24  1  0  0  0
 23 25  1  0  0  0
 25 26  1  0  0  0
 26 27  4  0  0  0
 26 28  4  0  0  0
 27 29  4  0  0  0
 28 30  4  0  0  0
 29 31  4  0  0  0
 30 31  4  0  0  0
 33 32  1  0  0  0
 32 34  1  0  0  0
 32 44  1  0  0  0
 34 35  1  0  0  0
 34 37  1  0  0  0
 35 36  2  0  0  0
 35 45  1  0  0  0
 37 38  1  0  0  0
 38 39  1  0  0  0
 38 43  1  0  0  0
 39 40  1  0  0  0
 40 41  1  0  0  0
 41 42  1  0  0  0
 42 43  1  0  0  0
 43 44  1  0  0  0
 45 46  1  0  0  0
 46 47  1  0  0  0
 46 48  1  0  0  0
 46 49  1  0  0  0
  5 50  1  0  0  0
  6 51  1  0  0  0
  8 52  1  0  0  0
  9 53  1  0  0  0
 10 54  1  0  0  0
 11 55  1  0  0  0
 13 56  1  0  0  0
 14 57  1  0  0  0
 17 58  1  0  0  0
 17 59  1  0  0  0
 20 60  1  0  0  0
 20 61  1  0  0  0
 21 62  1  0  0  0
 22 63  1  0  0  0
 23 64  1  0  0  0
 24 65  1  0  0  0
 25 66  1  0  0  0
 25 67  1  0  0  0
 27 68  1  0  0  0
 28 69  1  0  0  0
 29 70  1  0  0  0
 30 71  1  0  0  0
 31 72  1  0  0  0
 33 73  1  0  0  0
 33 74  1  0  0  0
 34 75  1  0  0  0
 37 76  1  0  0  0
 37 77  1  0  0  0
 38 78  1  0  0  0
 39 79  1  0  0  0
 39 80  1  0  0  0
 40 81  1  0  0  0
 40 82  1  0  0  0
 41 83  1  0  0  0
 41 84  1  0  0  0
 42 85  1  0  0  0
 42 86  1  0  0  0
 43 87  1  0  0  0
 44 88  1  0  0  0
 44 89  1  0  0  0
 45 90  1  0  0  0
 47 91  1  0  0  0
 47 92  1  0  0  0
 47 93  1  0  0  0
 48 94  1  0  0  0
 48 95  1  0  0  0
 48 96  1  0  0  0
 49 97  1  0  0  0
 49 98  1  0  0  0
 49 99  1  0  0  0
M  END
$$$$
