### 
### Created by X-TOOL on Mon Oct 24 22:55:24 2005
### 

@<TRIPOS>MOLECULE
1i9n_ligand
   34    35     1     0     0
SMALL
GAST_HUCK


@<TRIPOS>ATOM
      1 H31        -2.8249    2.7265   14.3115 H         1 SUB1        0.067
      2 H41        -3.5358    0.8514   15.7670 H         1 SUB1        0.065
      3 C01        -3.8580    2.6650   14.6340 C.ar      1 SUB1       -0.040
      4 C02        -4.2550    1.6000   15.4550 C.ar      1 SUB1       -0.030
      5 C03        -5.6300    1.5110   15.8800 C.ar      1 SUB1        0.112
      6 C04        -6.5210    2.5060   15.4670 C.ar      1 SUB1       -0.030
      7 C05        -6.0910    3.5650   14.6510 C.ar      1 SUB1       -0.040
      8 C06        -4.7660    3.6560   14.2180 C.ar      1 SUB1        0.050
      9 C07        -4.2940    4.7950   13.3100 C.2       1 SUB1        0.207
     10 O08        -5.1660    5.6310   12.9800 O.2       1 SUB1       -0.384
     11 N09        -2.9430    4.9470   12.8050 N.am      1 SUB1       -0.275
     12 C10        -2.5340    6.2940   12.4270 C.3       1 SUB1        0.064
     13 S11        -6.0970    0.1220   16.9150 S.o2      1 SUB1        0.068
     14 NP2        -5.6460   -1.3760   16.2760 N.am      1 SUB1       -0.261
     15 O13        -7.5310    0.3470   17.0640 O.2       1 SUB1       -0.150
     16 O14        -5.4160    0.4830   18.1730 O.2       1 SUB1       -0.150
     17 C15        -1.8730    7.1420   13.3370 C.ar      1 SUB1        0.011
     18 C16        -2.1550    7.0100   14.7610 C.ar      1 SUB1       -0.027
     19 C17        -1.4740    7.8960   15.7000 C.ar      1 SUB1        0.122
     20 C18        -0.5340    8.8880   15.2000 C.ar      1 SUB1       -0.037
     21 C19        -0.2600    9.0020   13.7600 C.ar      1 SUB1       -0.037
     22 C20        -0.9230    8.1380   12.8340 C.ar      1 SUB1        0.131
     23 F21        -0.6810    8.2560   11.6550 F         1 SUB1       -0.192
     24 F22        -1.7210    7.7970   17.0360 F         1 SUB1       -0.189
     25 H61        -7.5575    2.4595   15.7808 H         1 SUB1        0.065
     26 H71        -6.8014    4.3269   14.3512 H         1 SUB1        0.067
     27 H111       -2.3232    4.1668   12.7204 H         1 SUB1        0.187
     28 H121       -3.4485    6.8216   12.1184 H         1 SUB1        0.067
     29 H122       -1.8641    6.1842   11.5614 H         1 SUB1        0.067
     30 H141       -5.8606   -2.2233   16.7781 H         1 SUB1        0.163
     31 H181       -2.8588    6.2662   15.1167 H         1 SUB1        0.053
     32 H201       -0.0309    9.5494   15.8961 H         1 SUB1        0.054
     33 H211        0.4456    9.7421   13.4001 H         1 SUB1        0.058
     34 H142       -5.1662   -1.4219   15.3998 H         1 SUB1        0.163
@<TRIPOS>BOND
     1    3    8 ar 
     2    3    4 ar 
     3    4    5 ar 
     4    5   13 1  
     5    5    6 ar 
     6    6    7 ar 
     7    7    8 ar 
     8    8    9 1  
     9    9   11 am 
    10    9   10 2  
    11   11   12 1  
    12   12   17 1  
    13   17   22 ar 
    14   17   18 ar 
    15   18   19 ar 
    16   19   20 ar 
    17   20   21 ar 
    18   21   22 ar 
    19   13   16 2  
    20   13   15 2  
    21   13   14 1  
    22   22   23 1  
    23   19   24 1  
    24    3    1 1  
    25    4    2 1  
    26    6   25 1  
    27    7   26 1  
    28   11   27 1  
    29   12   28 1  
    30   12   29 1  
    31   14   30 1  
    32   18   31 1  
    33   20   32 1  
    34   21   33 1  
    35   14   34 1  
@<TRIPOS>SUBSTRUCTURE
     1 SUB1        1 GROUP

