1i9n_ligand
  -I-interpret- 

 34 35  0  0  0  0  0  0  0  0999 V2000
   -2.8249    2.7265   14.3115 H   0  0  0  0  0
   -3.5358    0.8514   15.7670 H   0  0  0  0  0
   -3.8580    2.6650   14.6340 C   0  0  0  0  0
   -4.2550    1.6000   15.4550 C   0  0  0  0  0
   -5.6300    1.5110   15.8800 C   0  0  0  0  0
   -6.5210    2.5060   15.4670 C   0  0  0  0  0
   -6.0910    3.5650   14.6510 C   0  0  0  0  0
   -4.7660    3.6560   14.2180 C   0  0  0  0  0
   -4.2940    4.7950   13.3100 C   0  0  0  0  0
   -5.1660    5.6310   12.9800 O   0  0  0  0  0
   -2.9430    4.9470   12.8050 N   0  0  0  0  0
   -2.5340    6.2940   12.4270 C   0  0  0  0  0
   -6.0970    0.1220   16.9150 S   0  0  0  0  0
   -5.6460   -1.3760   16.2760 N   0  0  0  0  0
   -7.5310    0.3470   17.0640 O   0  0  0  0  0
   -5.4160    0.4830   18.1730 O   0  0  0  0  0
   -1.8730    7.1420   13.3370 C   0  0  0  0  0
   -2.1550    7.0100   14.7610 C   0  0  0  0  0
   -1.4740    7.8960   15.7000 C   0  0  0  0  0
   -0.5340    8.8880   15.2000 C   0  0  0  0  0
   -0.2600    9.0020   13.7600 C   0  0  0  0  0
   -0.9230    8.1380   12.8340 C   0  0  0  0  0
   -0.6810    8.2560   11.6550 F   0  0  0  0  0
   -1.7210    7.7970   17.0360 F   0  0  0  0  0
   -7.5575    2.4595   15.7808 H   0  0  0  0  0
   -6.8014    4.3269   14.3512 H   0  0  0  0  0
   -2.3232    4.1668   12.7204 H   0  0  0  0  0
   -3.4485    6.8216   12.1184 H   0  0  0  0  0
   -1.8641    6.1842   11.5614 H   0  0  0  0  0
   -5.8606   -2.2233   16.7781 H   0  0  0  0  0
   -2.8588    6.2662   15.1167 H   0  0  0  0  0
   -0.0309    9.5494   15.8961 H   0  0  0  0  0
    0.4456    9.7421   13.4001 H   0  0  0  0  0
   -5.1662   -1.4219   15.3998 H   0  0  0  0  0
  3  8  4  0  0  0
  3  4  4  0  0  0
  4  5  4  0  0  0
  5 13  1  0  0  0
  5  6  4  0  0  0
  6  7  4  0  0  0
  7  8  4  0  0  0
  8  9  1  0  0  0
  9 11  1  0  0  0
  9 10  2  0  0  0
 11 12  1  0  0  0
 12 17  1  0  0  0
 17 22  4  0  0  0
 17 18  4  0  0  0
 18 19  4  0  0  0
 19 20  4  0  0  0
 20 21  4  0  0  0
 21 22  4  0  0  0
 13 16  2  0  0  0
 13 15  2  0  0  0
 13 14  1  0  0  0
 22 23  1  0  0  0
 19 24  1  0  0  0
  3  1  1  0  0  0
  4  2  1  0  0  0
  6 25  1  0  0  0
  7 26  1  0  0  0
 11 27  1  0  0  0
 12 28  1  0  0  0
 12 29  1  0  0  0
 14 30  1  0  0  0
 18 31  1  0  0  0
 20 32  1  0  0  0
 21 33  1  0  0  0
 14 34  1  0  0  0
M  END
$$$$
