### 
### Created by X-TOOL on Mon Oct 24 23:51:45 2005
### 

@<TRIPOS>MOLECULE
1d6v_ligand
   54    56     1     0     0
SMALL
GAST_HUCK


@<TRIPOS>ATOM
      1 H51        11.6850    7.6653    1.5329 H         1 SUB1        0.056
      2 H61         9.8622    6.5557    0.2043 H         1 SUB1        0.060
      3 H71        12.5971    9.8773    0.8127 H         1 SUB1        0.060
      4 H81        11.7057   11.0012   -1.2373 H         1 SUB1        0.056
      5 C1         11.2940    8.1470    0.6440 C.ar      1 SUB1       -0.069
      6 C2         10.2580    7.5140   -0.1120 C.ar      1 SUB1       -0.069
      7 C6         11.8120    9.4030    0.2350 C.ar      1 SUB1       -0.069
      8 C5         11.3050   10.0420   -0.9300 C.ar      1 SUB1       -0.060
      9 C4         10.2600    9.4190   -1.7040 C.ar      1 SUB1       -0.040
     10 C3          9.7490    8.1450   -1.2790 C.ar      1 SUB1       -0.060
     11 C7          9.7100   10.0840   -2.9860 C.3       1 SUB1       -0.005
     12 C12        10.7980   10.8910   -3.7860 C.3       1 SUB1       -0.012
     13 C11        10.2490   11.5620   -5.0690 C.3       1 SUB1        0.070
     14 C10         9.0570   12.5180   -4.7100 C.3       1 SUB1        0.021
     15 C9          7.9250   11.6920   -3.9550 C.3       1 SUB1       -0.035
     16 C8          8.4760   11.0080   -2.6630 C.3       1 SUB1       -0.038
     17 C13         8.4910   13.2160   -6.0100 C.ar      1 SUB1       -0.033
     18 C14         9.1060   14.4380   -6.4700 C.ar      1 SUB1       -0.054
     19 C15         8.6300   15.0920   -7.6120 C.ar      1 SUB1       -0.049
     20 C16         7.5150   14.5600   -8.3470 C.ar      1 SUB1        0.043
     21 C17         6.9200   13.3420   -7.8940 C.ar      1 SUB1       -0.049
     22 C18         7.3900   12.6670   -6.7420 C.ar      1 SUB1       -0.054
     23 O19        11.3230   12.2680   -5.7340 O.3       1 SUB1       -0.389
     24 C20         7.0300   15.2630   -9.5770 C.2       1 SUB1        0.200
     25 O21         5.9330   14.9560  -10.0620 O.2       1 SUB1       -0.388
     26 N22         7.8270   16.2400  -10.1200 N.am      1 SUB1       -0.287
     27 C23         7.5630   17.1070  -11.3090 C.3       1 SUB1        0.033
     28 C24         8.6300   18.2450  -11.3710 C.3       1 SUB1       -0.021
     29 C25         9.4940   18.3250  -10.0860 C.3       1 SUB1       -0.012
     30 C26        10.4590   19.4890  -10.0280 C.2       1 SUB1        0.028
     31 O27        11.4120   19.6240  -10.8120 O.co2     1 SUB1       -0.567
     32 O28        10.1590   20.3660   -8.9880 O.co2     1 SUB1       -0.567
     33 H101        8.9680    7.6608   -1.8540 H         1 SUB1        0.056
     34 H111        9.3575    9.2747   -3.6424 H         1 SUB1        0.046
     35 H121       11.6041   10.1995   -4.0723 H         1 SUB1        0.032
     36 H122       11.2033   11.6748   -3.1292 H         1 SUB1        0.032
     37 H131        9.8735   10.7804   -5.7458 H         1 SUB1        0.062
     38 H141        9.4271   13.3014   -4.0324 H         1 SUB1        0.050
     39 H151        7.5378   10.9163   -4.6319 H         1 SUB1        0.029
     40 H152        7.1098   12.3760   -3.6766 H         1 SUB1        0.029
     41 H161        8.7878   11.7862   -1.9508 H         1 SUB1        0.029
     42 H162        7.6792   10.3974   -2.2133 H         1 SUB1        0.029
     43 H181        9.9457   14.8537   -5.9250 H         1 SUB1        0.057
     44 H191        9.1060   16.0072   -7.9451 H         1 SUB1        0.065
     45 H211        6.0868   12.9241   -8.4473 H         1 SUB1        0.065
     46 H221        6.9215   11.7448   -6.4177 H         1 SUB1        0.057
     47 H231       10.9891   12.6808   -6.5217 H         1 SUB1        0.210
     48 H261        8.7010   16.3921   -9.6585 H         1 SUB1        0.184
     49 H271        6.5595   17.5496  -11.2244 H         1 SUB1        0.052
     50 H272        7.6203   16.5005  -12.2249 H         1 SUB1        0.052
     51 H281        8.1123   19.2059  -11.5074 H         1 SUB1        0.032
     52 H282        9.2924   18.0602  -12.2295 H         1 SUB1        0.032
     53 H291       10.0775   17.3956  -10.0102 H         1 SUB1        0.049
     54 H292        8.8150   18.4031   -9.2241 H         1 SUB1        0.049
@<TRIPOS>BOND
     1    5    7 ar 
     2    5    6 ar 
     3    6   10 ar 
     4   10    9 ar 
     5    9   11 1  
     6    9    8 ar 
     7    8    7 ar 
     8   11   16 1  
     9   11   12 1  
    10   12   13 1  
    11   13   23 1  
    12   13   14 1  
    13   14   17 1  
    14   14   15 1  
    15   15   16 1  
    16   17   22 ar 
    17   17   18 ar 
    18   18   19 ar 
    19   19   20 ar 
    20   20   24 1  
    21   20   21 ar 
    22   21   22 ar 
    23   24   26 am 
    24   24   25 2  
    25   26   27 1  
    26   27   28 1  
    27   28   29 1  
    28   29   30 1  
    29   30   32 2  
    30   30   31 2  
    31    5    1 1  
    32    6    2 1  
    33    7    3 1  
    34    8    4 1  
    35   10   33 1  
    36   11   34 1  
    37   12   35 1  
    38   12   36 1  
    39   13   37 1  
    40   14   38 1  
    41   15   39 1  
    42   15   40 1  
    43   16   41 1  
    44   16   42 1  
    45   18   43 1  
    46   19   44 1  
    47   21   45 1  
    48   22   46 1  
    49   23   47 1  
    50   26   48 1  
    51   27   49 1  
    52   27   50 1  
    53   28   51 1  
    54   28   52 1  
    55   29   53 1  
    56   29   54 1  
@<TRIPOS>SUBSTRUCTURE
     1 SUB1        1 GROUP

