### 
### Created by X-TOOL on Mon Oct 24 22:06:00 2005
### 

@<TRIPOS>MOLECULE
1ow4_ligand
   33    35     1     0     0
SMALL
GAST_HUCK


@<TRIPOS>ATOM
      1 C1          0.9260   -7.4280    6.1550 C.ar      1 SUB1        0.073
      2 C2          2.2180   -7.0360    5.8810 C.ar      1 SUB1       -0.041
      3 C3          2.4990   -6.0620    4.9330 C.ar      1 SUB1       -0.077
      4 C4          1.4750   -5.4250    4.2510 C.ar      1 SUB1       -0.070
      5 C5          0.1790   -5.7790    4.5110 C.ar      1 SUB1       -0.026
      6 C6         -0.8070   -5.0870    3.8090 C.ar      1 SUB1       -0.059
      7 C7         -2.1290   -5.3720    4.0000 C.ar      1 SUB1       -0.063
      8 C8         -2.4970   -6.3350    4.9160 C.ar      1 SUB1       -0.042
      9 N           0.6510   -8.4480    7.0330 N.pl3     1 SUB1       -0.271
     10 S          -2.2100   -8.2990    6.7310 S.o2      1 SUB1       -0.162
     11 C9         -1.5290   -7.0150    5.6370 C.ar      1 SUB1        0.059
     12 C10        -0.1430   -6.7580    5.4580 C.ar      1 SUB1        0.033
     13 C11         1.2240   -9.4340    7.7200 C.ar      1 SUB1        0.060
     14 C12         0.4990   -9.7660    8.8940 C.ar      1 SUB1       -0.039
     15 C13         0.9370  -10.7070    9.8200 C.ar      1 SUB1       -0.072
     16 C14         2.1250  -11.3810    9.5480 C.ar      1 SUB1       -0.074
     17 C15         2.8580  -11.1000    8.4040 C.ar      1 SUB1       -0.072
     18 C16         2.4210  -10.0980    7.4900 C.ar      1 SUB1       -0.039
     19 O1         -1.4810   -9.5900    6.4540 O.co2     1 SUB1       -0.479
     20 O2         -2.1090   -7.9110    8.1640 O.co2     1 SUB1       -0.479
     21 O3         -3.6120   -8.6540    6.3080 O.co2     1 SUB1       -0.479
     22 H21         3.0362   -7.5002    6.4197 H         1 SUB1        0.048
     23 H31         3.5292   -5.7972    4.7243 H         1 SUB1        0.058
     24 H41         1.6977   -4.6557    3.5205 H         1 SUB1        0.048
     25 H61        -0.5213   -4.3146    3.1041 H         1 SUB1        0.060
     26 H71        -2.8866   -4.8429    3.4333 H         1 SUB1        0.061
     27 H81        -3.5458   -6.5603    5.0722 H         1 SUB1        0.060
     28 H91        -0.3599   -8.4511    7.2304 H         1 SUB1        0.212
     29 H141       -0.4425   -9.2614    9.0782 H         1 SUB1        0.053
     30 H151        0.3725  -10.9090   10.7231 H         1 SUB1        0.059
     31 H161        2.4819  -12.1355   10.2396 H         1 SUB1        0.052
     32 H171        3.7717  -11.6478    8.2037 H         1 SUB1        0.059
     33 H181        3.0201   -9.8556    6.6197 H         1 SUB1        0.053
@<TRIPOS>BOND
     1    1    2 ar 
     2    1    9 1  
     3   12    1 ar 
     4    2    3 ar 
     5    4    3 ar 
     6    5    4 ar 
     7    5    6 ar 
     8   12    5 ar 
     9    7    6 ar 
    10    8    7 ar 
    11   11    8 ar 
    12    9   13 1  
    13   11   12 ar 
    14   13   14 ar 
    15   13   18 ar 
    16   14   15 ar 
    17   15   16 ar 
    18   17   16 ar 
    19   18   17 ar 
    20   10   21 2  
    21   10   20 2  
    22   10   19 2  
    23   11   10 1  
    24    2   22 1  
    25    3   23 1  
    26    4   24 1  
    27    6   25 1  
    28    7   26 1  
    29    8   27 1  
    30    9   28 1  
    31   14   29 1  
    32   15   30 1  
    33   16   31 1  
    34   17   32 1  
    35   18   33 1  
@<TRIPOS>SUBSTRUCTURE
     1 SUB1        1 GROUP

