1ta2_ligand
  -I-interpret- 

 62 65  0  0  0  0  0  0  0  0999 V2000
   15.8660  -16.7580   23.5030 N   0  3  0  0  0
   17.1550  -16.1010   23.4550 C   0  0  0  0  0
   17.7760  -15.9630   24.8830 C   0  0  0  0  0
   19.2120  -15.4260   24.9960 C   0  0  0  0  0
   20.2020  -15.8250   24.1330 C   0  0  0  0  0
   21.4950  -15.3760   24.3010 C   0  0  0  0  0
   21.8120  -14.5240   25.3310 C   0  0  0  0  0
   20.8240  -14.1130   26.1900 C   0  0  0  0  0
   19.5340  -14.5620   26.0220 C   0  0  0  0  0
   17.6640  -17.2060   25.7530 C   0  0  0  0  0
   17.8350  -18.4740   25.2130 C   0  0  0  0  0
   17.7410  -19.5790   26.0350 C   0  0  0  0  0
   17.4820  -19.4190   27.3820 C   0  0  0  0  0
   17.3150  -18.1500   27.9110 C   0  0  0  0  0
   17.4020  -17.0370   27.1040 C   0  0  0  0  0
   16.8700  -14.7370   22.8670 C   0  0  0  0  0
   15.9140  -14.0630   23.2910 O   0  0  0  0  0
   17.6840  -14.2690   21.9030 N   0  0  0  0  0
   18.8430  -14.9480   21.3240 C   0  0  0  0  0
   17.4520  -13.0160   21.1990 C   0  0  0  0  0
   18.5290  -13.0280   20.1110 C   0  0  0  0  0
   19.6380  -13.8030   20.7460 C   0  0  0  0  0
   16.0260  -12.8260   20.6590 C   0  0  0  0  0
   15.6730  -13.4810   19.6730 O   0  0  0  0  0
   15.2430  -11.8970   21.2410 N   0  0  0  0  0
   13.8920  -11.6010   20.8080 C   0  0  0  0  0
   12.9150  -11.5570   21.9770 C   0  0  0  0  0
   12.0460  -12.5690   22.2790 C   0  0  0  0  0
   11.1370  -12.5980   23.3220 C   0  0  0  0  0
   11.0810  -11.5020   24.1630 C   0  0  0  0  0
   11.9440  -10.4620   23.8820 C   0  0  0  0  0
   12.8300  -10.4940   22.8240 C   0  0  0  0  0
   12.0890  -13.8950   21.2070 Cl  0  0  0  0  0
   11.9280   -9.0600   24.8550 Cl  0  0  0  0  0
   15.9746  -17.6833   23.8879 H   0  0  0  0  0
   15.4876  -16.8241   22.5711 H   0  0  0  0  0
   15.2382  -16.2242   24.0835 H   0  0  0  0  0
   17.8477  -16.6624   22.8108 H   0  0  0  0  0
   17.1476  -15.2025   25.3695 H   0  0  0  0  0
   19.9663  -16.4964   23.3153 H   0  0  0  0  0
   22.2687  -15.6985   23.6137 H   0  0  0  0  0
   22.8314  -14.1802   25.4637 H   0  0  0  0  0
   21.0598  -13.4341   27.0015 H   0  0  0  0  0
   18.7601  -14.2321   26.7055 H   0  0  0  0  0
   18.0404  -18.5949   24.1555 H   0  0  0  0  0
   17.8706  -20.5732   25.6228 H   0  0  0  0  0
   17.4093  -20.2878   28.0262 H   0  0  0  0  0
   17.1140  -18.0315   28.9696 H   0  0  0  0  0
   17.2677  -16.0445   27.5187 H   0  0  0  0  0
   18.5379  -15.6559   20.5393 H   0  0  0  0  0
   19.4177  -15.4812   22.0956 H   0  0  0  0  0
   17.6447  -12.1802   21.8877 H   0  0  0  0  0
   18.8521  -12.0062   19.8629 H   0  0  0  0  0
   18.1667  -13.5291   19.2013 H   0  0  0  0  0
   20.3743  -14.1476   20.0050 H   0  0  0  0  0
   20.1489  -13.2222   21.5281 H   0  0  0  0  0
   15.6145  -11.3833   22.0144 H   0  0  0  0  0
   13.5666  -12.3794   20.1022 H   0  0  0  0  0
   13.8867  -10.6234   20.3037 H   0  0  0  0  0
   10.4890  -13.4534   23.4749 H   0  0  0  0  0
   10.3941  -11.4615   25.0006 H   0  0  0  0  0
   13.4812   -9.6428   22.6616 H   0  0  0  0  0
  1  2  1  0  0  0
  2  3  1  0  0  0
  2 16  1  0  0  0
  3  4  1  0  0  0
  3 10  1  0  0  0
  4  5  4  0  0  0
  4  9  4  0  0  0
  5  6  4  0  0  0
  6  7  4  0  0  0
  7  8  4  0  0  0
  8  9  4  0  0  0
 10 11  4  0  0  0
 10 15  4  0  0  0
 11 12  4  0  0  0
 12 13  4  0  0  0
 13 14  4  0  0  0
 14 15  4  0  0  0
 16 17  2  0  0  0
 16 18  1  0  0  0
 18 19  1  0  0  0
 18 20  1  0  0  0
 19 22  1  0  0  0
 20 21  1  0  0  0
 20 23  1  0  0  0
 21 22  1  0  0  0
 23 24  2  0  0  0
 23 25  1  0  0  0
 25 26  1  0  0  0
 26 27  1  0  0  0
 27 28  4  0  0  0
 27 32  4  0  0  0
 28 29  4  0  0  0
 28 33  1  0  0  0
 29 30  4  0  0  0
 30 31  4  0  0  0
 31 32  4  0  0  0
 31 34  1  0  0  0
  1 35  1  0  0  0
  1 36  1  0  0  0
  1 37  1  0  0  0
  2 38  1  0  0  0
  3 39  1  0  0  0
  5 40  1  0  0  0
  6 41  1  0  0  0
  7 42  1  0  0  0
  8 43  1  0  0  0
  9 44  1  0  0  0
 11 45  1  0  0  0
 12 46  1  0  0  0
 13 47  1  0  0  0
 14 48  1  0  0  0
 15 49  1  0  0  0
 19 50  1  0  0  0
 19 51  1  0  0  0
 20 52  1  0  0  0
 21 53  1  0  0  0
 21 54  1  0  0  0
 22 55  1  0  0  0
 22 56  1  0  0  0
 25 57  1  0  0  0
 26 58  1  0  0  0
 26 59  1  0  0  0
 29 60  1  0  0  0
 30 61  1  0  0  0
 32 62  1  0  0  0
M  END
$$$$
