### 
### Created by X-TOOL on Tue Oct 25 01:00:16 2005
### 

@<TRIPOS>MOLECULE
1uou_ligand
   27    28     1     0     0
SMALL
GAST_HUCK


@<TRIPOS>ATOM
      1 CL1        -4.8020    4.5290   30.6010 Cl        1 SUB1       -0.124
      2 C2         -3.5890    3.2930   30.6160 C.2       1 SUB1        0.096
      3 C3         -3.1120    2.7640   29.4620 C.2       1 SUB1        0.104
      4 C4         -3.6290    3.1660   28.0780 C.3       1 SUB1        0.090
      5 N5         -4.2650    1.9450   27.4960 N.3       1 SUB1       -0.222
      6 C6         -5.2940    1.1310   28.1790 C.3       1 SUB1        0.020
      7 C7         -5.8240    0.1420   27.1130 C.3       1 SUB1       -0.046
      8 C8         -4.7920    0.1450   25.9440 C.2       1 SUB1       -0.099
      9 C9         -3.9760    1.3960   26.2670 C.2       1 SUB1        0.071
     10 N10        -3.1160    1.9270   25.4500 N.pl3     1 SUB1       -0.329
     11 N11        -2.1490    1.7930   29.5710 N.am      1 SUB1       -0.193
     12 C12        -1.6730    1.3490   30.7550 C.2       1 SUB1        0.328
     13 O13        -0.8200    0.4700   30.7610 O.2       1 SUB1       -0.382
     14 N14        -2.1450    1.8640   31.9070 N.am      1 SUB1       -0.189
     15 C15        -3.0730    2.8300   31.8600 C.2       1 SUB1        0.184
     16 O16        -3.4740    3.3130   32.8930 O.2       1 SUB1       -0.420
     17 H41        -2.7957    3.5008   27.4427 H         1 SUB1        0.074
     18 H42        -4.3692    3.9746   28.1682 H         1 SUB1        0.074
     19 H61        -6.1090    1.7724   28.5454 H         1 SUB1        0.049
     20 H62        -4.8508    0.5829   29.0235 H         1 SUB1        0.049
     21 H71        -6.8092    0.4692   26.7493 H         1 SUB1        0.028
     22 H72        -5.9080   -0.8676   27.5415 H         1 SUB1        0.028
     23 H81        -4.6822   -0.5566   25.1184 H         1 SUB1       -0.008
     24 H101       -2.9291    1.4836   24.5393 H         1 SUB1        0.173
     25 H102       -2.6213    2.7912   25.7132 H         1 SUB1        0.173
     26 H111       -1.7806    1.3935   28.7315 H         1 SUB1        0.245
     27 H141       -1.8070    1.5295   32.7867 H         1 SUB1        0.225
@<TRIPOS>BOND
     1    1    2 1  
     2    2    3 2  
     3    2   15 1  
     4    3    4 1  
     5    3   11 am 
     6    4    5 1  
     7    5    6 1  
     8    5    9 1  
     9    6    7 1  
    10    7    8 1  
    11    8    9 2  
    12    9   10 1  
    13   11   12 am 
    14   12   13 2  
    15   12   14 am 
    16   14   15 am 
    17   15   16 2  
    18    4   17 1  
    19    4   18 1  
    20    6   19 1  
    21    6   20 1  
    22    7   21 1  
    23    7   22 1  
    24    8   23 1  
    25   10   24 1  
    26   10   25 1  
    27   11   26 1  
    28   14   27 1  
@<TRIPOS>SUBSTRUCTURE
     1 SUB1        1 GROUP

