### 
### Created by X-TOOL on Tue Oct 25 00:07:16 2005
### 

@<TRIPOS>MOLECULE
1ucn_ligand
   39    41     1     0     0
SMALL
GAST_HUCK


@<TRIPOS>ATOM
      1 PB         -8.7700   96.8750   16.0660 P.3       1 SUB1        0.158
      2 O1B        -8.8350   97.6750   14.8160 O.co2     1 SUB1       -0.616
      3 O2B        -7.6870   95.8750   16.2280 O.co2     1 SUB1       -0.616
      4 O3B        -8.6760   97.8940   17.2880 O.co2     1 SUB1       -0.616
      5 PA        -11.5710   96.8260   16.1870 P.3       1 SUB1        0.372
      6 O1A       -11.3610   98.2290   15.7410 O.co2     1 SUB1       -0.457
      7 O2A       -12.4890   95.9430   15.4210 O.co2     1 SUB1       -0.457
      8 O3A       -10.1510   96.0950   16.2010 O.3       1 SUB1       -0.257
      9 O5        -12.0920   96.8800   17.6910 O.3       1 SUB1       -0.253
     10 C5        -11.8230   98.0040   18.5150 C.3       1 SUB1        0.111
     11 C4        -11.4430   97.5520   19.9020 C.3       1 SUB1        0.119
     12 O4        -12.5530   96.8180   20.4790 O.3       1 SUB1       -0.336
     13 C3        -10.2840   96.5720   19.9820 C.3       1 SUB1        0.115
     14 O3         -9.0360   97.2550   19.9420 O.3       1 SUB1       -0.386
     15 C2        -10.5270   95.9070   21.3330 C.3       1 SUB1        0.139
     16 O2        -10.0700   96.6770   22.4270 O.3       1 SUB1       -0.384
     17 C1        -12.0560   95.8240   21.3610 C.3       1 SUB1        0.201
     18 N9        -12.5490   94.5180   20.9230 N.pl3     1 SUB1       -0.192
     19 C8        -12.6720   94.0340   19.6440 C.2       1 SUB1        0.112
     20 N7        -13.1190   92.8030   19.5870 N.2       1 SUB1       -0.296
     21 C5        -13.3080   92.4550   20.9180 C.ar      1 SUB1        0.105
     22 C6        -13.7670   91.2770   21.5330 C.ar      1 SUB1        0.130
     23 N6        -14.1340   90.1820   20.8570 N.pl3     1 SUB1       -0.315
     24 N1        -13.8400   91.2600   22.8840 N.ar      1 SUB1       -0.270
     25 C2        -13.4780   92.3590   23.5580 C.ar      1 SUB1        0.053
     26 N3        -13.0330   93.5250   23.0930 N.ar      1 SUB1       -0.271
     27 C4        -12.9700   93.5050   21.7500 C.ar      1 SUB1        0.161
     28 H101      -12.7213   98.6363   18.5720 H         1 SUB1        0.065
     29 H102      -10.9941   98.5827   18.0814 H         1 SUB1        0.065
     30 H111      -11.2094   98.4424   20.5042 H         1 SUB1        0.065
     31 H131      -10.3239   95.8367   19.1649 H         1 SUB1        0.065
     32 H141       -8.9687   97.7420   19.1291 H         1 SUB1        0.210
     33 H151      -10.0641   94.9098   21.3700 H         1 SUB1        0.068
     34 H161       -9.1347   96.8208   22.3429 H         1 SUB1        0.210
     35 H171      -12.4115   96.0169   22.3839 H         1 SUB1        0.100
     36 H191      -12.4216   94.6181   18.7597 H         1 SUB1        0.135
     37 H231      -14.4622   89.3486   21.3656 H         1 SUB1        0.182
     38 H232      -14.0883   90.1725   19.8281 H         1 SUB1        0.182
     39 H251      -13.5587   92.2897   24.6368 H         1 SUB1        0.100
@<TRIPOS>BOND
     1    1    2 2  
     2    1    3 2  
     3    1    4 2  
     4    8    1 1  
     5    5    6 2  
     6    5    7 2  
     7    5    8 1  
     8    5    9 1  
     9    9   10 1  
    10   10   11 1  
    11   11   12 1  
    12   11   13 1  
    13   12   17 1  
    14   13   14 1  
    15   13   15 1  
    16   15   16 1  
    17   15   17 1  
    18   17   18 1  
    19   18   19 1  
    20   18   27 1  
    21   19   20 2  
    22   20   21 1  
    23   21   22 ar 
    24   21   27 ar 
    25   22   23 1  
    26   22   24 ar 
    27   24   25 ar 
    28   25   26 ar 
    29   26   27 ar 
    30   10   28 1  
    31   10   29 1  
    32   11   30 1  
    33   13   31 1  
    34   14   32 1  
    35   15   33 1  
    36   16   34 1  
    37   17   35 1  
    38   19   36 1  
    39   23   37 1  
    40   23   38 1  
    41   25   39 1  
@<TRIPOS>SUBSTRUCTURE
     1 SUB1        1 GROUP

