### 
### Created by X-TOOL on Mon Oct 24 22:43:43 2005
### 

@<TRIPOS>MOLECULE
1hi3_ligand
   38    40     1     0     0
SMALL
GAST_HUCK


@<TRIPOS>ATOM
      1 P1         14.8530   14.4520    9.7070 P.3       1 SUB1        0.206
      2 O1P        14.2360   15.2030   10.8760 O.co2     1 SUB1       -0.535
      3 O2P        13.8430   13.6100    8.9450 O.co2     1 SUB1       -0.535
      4 O3P        16.1030   13.6840   10.0890 O.co2     1 SUB1       -0.535
      5 P2         10.3480   16.8950    7.2600 P.3       1 SUB1        0.205
      6 O4P        10.1840   16.3180    8.6630 O.co2     1 SUB1       -0.535
      7 O5P         9.6100   18.2180    7.0800 O.co2     1 SUB1       -0.535
      8 O6P        10.0450   15.8780    6.1620 O.co2     1 SUB1       -0.535
      9 O5'        11.9310   17.2670    7.1120 O.3       1 SUB1       -0.320
     10 C5'        12.5150   17.5560    5.8240 C.3       1 SUB1        0.095
     11 C4'        14.0250   17.5840    5.9390 C.3       1 SUB1        0.118
     12 O4'        14.4100   18.5880    6.9230 O.3       1 SUB1       -0.336
     13 C3'        14.6400   16.2880    6.4470 C.3       1 SUB1        0.119
     14 O3'        15.9970   16.2550    6.0240 O.3       1 SUB1       -0.386
     15 C2'        14.5390   16.4700    7.9580 C.3       1 SUB1        0.160
     16 O2'        15.3980   15.5800    8.6610 O.3       1 SUB1       -0.311
     17 C1'        14.8980   17.9510    8.0960 C.3       1 SUB1        0.205
     18 N9         14.3030   18.6300    9.2510 N.pl3     1 SUB1       -0.191
     19 C8         13.1070   18.3710    9.8870 C.2       1 SUB1        0.112
     20 N7         12.8470   19.1930   10.8770 N.2       1 SUB1       -0.296
     21 C5         13.9470   20.0470   10.9000 C.ar      1 SUB1        0.105
     22 C6         14.2940   21.1580   11.7230 C.ar      1 SUB1        0.130
     23 N6         13.5260   21.6210   12.7120 N.pl3     1 SUB1       -0.315
     24 N1         15.4770   21.7830   11.4790 N.ar      1 SUB1       -0.270
     25 C2         16.2560   21.3250   10.4820 C.ar      1 SUB1        0.053
     26 N3         16.0360   20.3040    9.6460 N.ar      1 SUB1       -0.271
     27 C4         14.8550   19.7020    9.9100 C.ar      1 SUB1        0.161
     28 H101       12.2180   16.7777    5.1057 H         1 SUB1        0.064
     29 H102       12.1574   18.5351    5.4726 H         1 SUB1        0.064
     30 H111       14.4475   17.8281    4.9531 H         1 SUB1        0.065
     31 H131       14.0993   15.3949    6.1006 H         1 SUB1        0.065
     32 H141       16.4421   15.5307    6.4479 H         1 SUB1        0.210
     33 H151       13.5097   16.2950    8.3041 H         1 SUB1        0.073
     34 H171       15.9920   18.0476    8.1578 H         1 SUB1        0.100
     35 H191       12.4407   17.5605    9.5953 H         1 SUB1        0.135
     36 H231       13.8364   22.4293   13.2698 H         1 SUB1        0.182
     37 H232       12.6231   21.1699   12.9172 H         1 SUB1        0.182
     38 H251       17.1897   21.8561   10.3363 H         1 SUB1        0.100
@<TRIPOS>BOND
     1    1   16 1  
     2    1    4 2  
     3    1    3 2  
     4    1    2 2  
     5   16   15 1  
     6   15   17 1  
     7   15   13 1  
     8   13   14 1  
     9   13   11 1  
    10   11   12 1  
    11   11   10 1  
    12   10    9 1  
    13    9    5 1  
    14    5    8 2  
    15    5    7 2  
    16    5    6 2  
    17   12   17 1  
    18   17   18 1  
    19   18   19 1  
    20   18   27 1  
    21   27   26 ar 
    22   27   21 ar 
    23   21   22 ar 
    24   21   20 1  
    25   20   19 2  
    26   22   23 1  
    27   22   24 ar 
    28   24   25 ar 
    29   25   26 ar 
    30   10   28 1  
    31   10   29 1  
    32   11   30 1  
    33   13   31 1  
    34   14   32 1  
    35   15   33 1  
    36   17   34 1  
    37   19   35 1  
    38   23   36 1  
    39   23   37 1  
    40   25   38 1  
@<TRIPOS>SUBSTRUCTURE
     1 SUB1        1 GROUP

