1f8a_ligand
  -I-interpret- 

105107  0  0  0  0  0  0  0  0999 V2000
    8.6410   14.8880   54.2820 N   0  3  0  0  0
    7.3030   14.8400   53.6190 C   0  0  0  0  0
    6.1940   14.9200   54.6420 C   0  0  0  0  0
    5.9700   13.9610   55.3560 O   0  0  0  0  0
    7.1180   13.5300   52.8140 C   0  0  0  0  0
    5.7030   13.3510   52.2480 C   0  0  0  0  0
    4.9520   12.2030   52.5210 C   0  0  0  0  0
    5.1140   14.3390   51.4510 C   0  0  0  0  0
    3.6450   12.0440   52.0170 C   0  0  0  0  0
    3.8070   14.1890   50.9430 C   0  0  0  0  0
    3.0810   13.0430   51.2310 C   0  0  0  0  0
    1.7930   12.9040   50.7540 O   0  0  0  0  0
    5.8930   16.1380   54.2700 N   0  0  0  0  0
    4.9110   16.1550   55.3420 C   0  0  0  0  0
    4.9760   17.4000   56.2480 C   0  0  0  0  0
    5.4180   17.0880   57.6030 O   0  0  0  0  0
    3.5480   15.9670   54.6670 C   0  0  0  0  0
    3.0410   16.8600   53.9990 O   0  0  0  0  0
    4.4750   17.3490   58.9060 P   0  0  0  0  0
    5.3460   17.2610   60.1200 O   0  5  0  0  0
    4.0060   18.7610   58.9480 O   0  5  0  0  0
    3.2790   16.4930   58.7490 O   0  0  0  0  0
    2.7180   14.7840   54.9620 N   0  0  0  0  0
    1.4100   14.4320   54.3830 C   0  0  0  0  0
    0.2900   15.4670   54.3780 C   0  0  0  0  0
    0.2290   16.3730   55.2130 O   0  0  0  0  0
    1.0200   13.1600   55.1480 C   0  0  0  0  0
    1.7520   13.2800   56.4460 C   0  0  0  0  0
    3.0940   13.8220   56.0100 C   0  0  0  0  0
   -0.6100   15.3120   53.4170 N   0  0  0  0  0
   -1.7440   16.2070   53.2870 C   0  0  0  0  0
   -2.9650   15.4720   53.8240 C   0  0  0  0  0
   -3.0480   14.2460   53.7400 O   0  0  0  0  0
   -1.9800   16.5790   51.8170 C   0  0  0  0  0
   -0.7220   16.6010   51.1310 O   0  0  0  0  0
   -2.6010   17.9600   51.7130 C   0  0  0  0  0
   -3.9010   16.2190   54.3940 N   0  0  0  0  0
   -5.1070   15.6130   54.9280 C   0  0  0  0  0
   -5.9820   16.6610   55.6130 C   0  0  0  0  0
   -5.2850   17.2780   56.6770 O   0  0  0  0  0
   -5.8590   14.9470   53.7880 C   0  0  0  0  0
   -5.8030   15.4050   52.6480 O   0  0  0  0  0
   -5.0170   18.8480   56.6710 P   0  0  0  0  0
   -3.9390   19.0530   57.6570 O   0  0  0  0  0
   -4.4100   19.2630   55.3770 O   0  5  0  0  0
   -6.3310   19.5260   56.7830 O   0  5  0  0  0
   -6.5710   13.8500   54.0790 N   0  0  0  0  0
   -7.3330   13.1220   53.0580 C   0  0  0  0  0
   -8.2890   13.9690   52.2170 C   0  0  0  0  0
   -8.5020   13.6780   51.0390 O   0  0  0  0  0
   -8.0430   12.0290   53.8620 C   0  0  0  0  0
   -8.0700   12.5660   55.2570 C   0  0  0  0  0
   -6.7440   13.2340   55.4050 C   0  0  0  0  0
   -8.8630   15.0110   52.8120 N   0  0  0  0  0
   -9.7770   15.8870   52.0810 C   0  0  0  0  0
   -9.7910   17.2730   52.7090 C   0  0  0  0  0
   -9.1050   17.4520   53.7380 O   0  5  0  0  0
  -11.1990   15.3100   52.0730 C   0  0  0  0  0
  -11.8200   15.4340   53.3400 O   0  0  0  0  0
  -10.4850   18.1590   52.1670 O   0  0  0  0  0
    9.3647   14.8334   53.5825 H   0  0  0  0  0
    8.7290   14.1109   54.9179 H   0  0  0  0  0
    8.7321   15.7522   54.7929 H   0  0  0  0  0
    7.2233   15.6963   52.9332 H   0  0  0  0  0
    7.3371   12.6804   53.4774 H   0  0  0  0  0
    7.8299   13.5337   51.9755 H   0  0  0  0  0
    5.3839   11.4193   53.1328 H   0  0  0  0  0
    5.6738   15.2379   51.2194 H   0  0  0  0  0
    3.0813   11.1457   52.2415 H   0  0  0  0  0
    3.3706   14.9681   50.3285 H   0  0  0  0  0
    1.5630   13.6685   50.2390 H   0  0  0  0  0
    6.2013   16.7742   53.5628 H   0  0  0  0  0
    5.0983   15.2854   55.9890 H   0  0  0  0  0
    3.9737   17.8503   56.2998 H   0  0  0  0  0
    5.6794   18.1208   55.8057 H   0  0  0  0  0
    1.5786   14.1732   53.3273 H   0  0  0  0  0
    1.3396   12.2610   54.6006 H   0  0  0  0  0
   -0.0667   13.1213   55.3141 H   0  0  0  0  0
    1.8579   12.3007   56.9356 H   0  0  0  0  0
    1.2430   13.9776   57.1274 H   0  0  0  0  0
    3.7342   13.0236   55.6067 H   0  0  0  0  0
    3.6114   14.3216   56.8423 H   0  0  0  0  0
   -0.5045   14.5601   52.7662 H   0  0  0  0  0
   -1.5658   17.1217   53.8714 H   0  0  0  0  0
   -2.6471   15.8374   51.3534 H   0  0  0  0  0
   -0.8633   16.8310   50.2201 H   0  0  0  0  0
   -2.7631   18.2103   50.6542 H   0  0  0  0  0
   -1.9255   18.7008   52.1656 H   0  0  0  0  0
   -3.5644   17.9697   52.2437 H   0  0  0  0  0
   -3.7747   17.2090   54.4565 H   0  0  0  0  0
   -4.8278   14.8495   55.6690 H   0  0  0  0  0
   -6.8858   16.1741   56.0081 H   0  0  0  0  0
   -6.2698   17.4271   54.8780 H   0  0  0  0  0
   -6.6254   12.6534   52.3582 H   0  0  0  0  0
   -7.4818   11.0840   53.8177 H   0  0  0  0  0
   -9.0638   11.8673   53.4855 H   0  0  0  0  0
   -8.1829   11.7522   55.9884 H   0  0  0  0  0
   -8.8895   13.2888   55.3832 H   0  0  0  0  0
   -5.9484   12.5040   55.6149 H   0  0  0  0  0
   -6.7641   13.9935   56.2005 H   0  0  0  0  0
   -8.6662   15.1981   53.7744 H   0  0  0  0  0
   -9.4253   15.9716   51.0422 H   0  0  0  0  0
  -11.1504   14.2450   51.8022 H   0  0  0  0  0
  -11.7995   15.8511   51.3269 H   0  0  0  0  0
  -12.6958   15.0681   53.2994 H   0  0  0  0  0
  3  2  1  0  0  0
  2  5  1  0  0  0
  2  1  1  0  0  0
  5  6  1  0  0  0
  6  8  4  0  0  0
  6  7  4  0  0  0
  7  9  4  0  0  0
  9 11  4  0  0  0
 11 12  1  0  0  0
 10 11  4  0  0  0
  8 10  4  0  0  0
  3  4  2  0  0  0
 13 14  1  0  0  0
 14 17  1  0  0  0
 14 15  1  0  0  0
 15 16  1  0  0  0
 16 19  1  0  0  0
 19 22  2  0  0  0
 19 21  1  0  0  0
 19 20  1  0  0  0
 17 18  2  0  0  0
 23 24  1  0  0  0
 24 27  1  0  0  0
 24 25  1  0  0  0
 25 26  2  0  0  0
 28 27  1  0  0  0
 29 28  1  0  0  0
 23 29  1  0  0  0
 31 32  1  0  0  0
 31 34  1  0  0  0
 30 31  1  0  0  0
 34 35  1  0  0  0
 34 36  1  0  0  0
 32 33  2  0  0  0
 37 38  1  0  0  0
 38 41  1  0  0  0
 38 39  1  0  0  0
 39 40  1  0  0  0
 40 43  1  0  0  0
 43 46  1  0  0  0
 43 45  1  0  0  0
 43 44  2  0  0  0
 41 42  2  0  0  0
 47 48  1  0  0  0
 48 51  1  0  0  0
 48 49  1  0  0  0
 49 50  2  0  0  0
 52 51  1  0  0  0
 53 52  1  0  0  0
 47 53  1  0  0  0
 55 56  1  0  0  0
 55 58  1  0  0  0
 54 55  1  0  0  0
 58 59  1  0  0  0
 56 60  2  0  0  0
 56 57  1  0  0  0
 25 30  1  0  0  0
 49 54  1  0  0  0
 41 47  1  0  0  0
 32 37  1  0  0  0
 17 23  1  0  0  0
 13  3  1  0  0  0
  1 61  1  0  0  0
  1 62  1  0  0  0
  1 63  1  0  0  0
  2 64  1  0  0  0
  5 65  1  0  0  0
  5 66  1  0  0  0
  7 67  1  0  0  0
  8 68  1  0  0  0
  9 69  1  0  0  0
 10 70  1  0  0  0
 12 71  1  0  0  0
 13 72  1  0  0  0
 14 73  1  0  0  0
 15 74  1  0  0  0
 15 75  1  0  0  0
 24 76  1  0  0  0
 27 77  1  0  0  0
 27 78  1  0  0  0
 28 79  1  0  0  0
 28 80  1  0  0  0
 29 81  1  0  0  0
 29 82  1  0  0  0
 30 83  1  0  0  0
 31 84  1  0  0  0
 34 85  1  0  0  0
 35 86  1  0  0  0
 36 87  1  0  0  0
 36 88  1  0  0  0
 36 89  1  0  0  0
 37 90  1  0  0  0
 38 91  1  0  0  0
 39 92  1  0  0  0
 39 93  1  0  0  0
 48 94  1  0  0  0
 51 95  1  0  0  0
 51 96  1  0  0  0
 52 97  1  0  0  0
 52 98  1  0  0  0
 53 99  1  0  0  0
 53100  1  0  0  0
 54101  1  0  0  0
 55102  1  0  0  0
 58103  1  0  0  0
 58104  1  0  0  0
 59105  1  0  0  0
M  END
$$$$
