### 
### Created by X-TOOL on Mon Oct 24 22:50:49 2005
### 

@<TRIPOS>MOLECULE
1f8a_ligand
  105   107     1     0     0
SMALL
GAST_HUCK


@<TRIPOS>ATOM
      1 N           8.6410   14.8880   54.2820 N.4       1 SUB1        0.239
      2 CA          7.3030   14.8400   53.6190 C.3       1 SUB1        0.073
      3 C           6.1940   14.9200   54.6420 C.2       1 SUB1        0.229
      4 O           5.9700   13.9610   55.3560 O.2       1 SUB1       -0.391
      5 CB          7.1180   13.5300   52.8140 C.3       1 SUB1        0.036
      6 CG          5.7030   13.3510   52.2480 C.ar      1 SUB1       -0.046
      7 CD1         4.9520   12.2030   52.5210 C.ar      1 SUB1       -0.068
      8 CD2         5.1140   14.3390   51.4510 C.ar      1 SUB1       -0.068
      9 CE1         3.6450   12.0440   52.0170 C.ar      1 SUB1       -0.040
     10 CE2         3.8070   14.1890   50.9430 C.ar      1 SUB1       -0.040
     11 CZ          3.0810   13.0430   51.2310 C.ar      1 SUB1        0.080
     12 OH          1.7930   12.9040   50.7540 O.3       1 SUB1       -0.338
     13 N           5.8930   16.1380   54.2700 N.am      1 SUB1       -0.258
     14 CA          4.9110   16.1550   55.3420 C.3       1 SUB1        0.159
     15 CB          4.9760   17.4000   56.2480 C.3       1 SUB1        0.106
     16 OG          5.4180   17.0880   57.6030 O.3       1 SUB1       -0.318
     17 C           3.5480   15.9670   54.6670 C.2       1 SUB1        0.209
     18 O           3.0410   16.8600   53.9990 O.2       1 SUB1       -0.394
     19 P           4.4750   17.3490   58.9060 P.3       1 SUB1        0.205
     20 O1P         5.3460   17.2610   60.1200 O.co2     1 SUB1       -0.535
     21 O2P         4.0060   18.7610   58.9480 O.co2     1 SUB1       -0.535
     22 O3P         3.2790   16.4930   58.7490 O.co2     1 SUB1       -0.535
     23 N           2.7180   14.7840   54.9620 N.am      1 SUB1       -0.250
     24 CA          1.4100   14.4320   54.3830 C.3       1 SUB1        0.134
     25 C           0.2900   15.4670   54.3780 C.2       1 SUB1        0.204
     26 O           0.2290   16.3730   55.2130 O.2       1 SUB1       -0.394
     27 CB          1.0200   13.1600   55.1480 C.3       1 SUB1       -0.010
     28 CG          1.7520   13.2800   56.4460 C.3       1 SUB1       -0.028
     29 CD          3.0940   13.8220   56.0100 C.3       1 SUB1        0.037
     30 N          -0.6100   15.3120   53.4170 N.am      1 SUB1       -0.261
     31 CA         -1.7440   16.2070   53.2870 C.3       1 SUB1        0.156
     32 C          -2.9650   15.4720   53.8240 C.2       1 SUB1        0.206
     33 O          -3.0480   14.2460   53.7400 O.2       1 SUB1       -0.394
     34 CB         -1.9800   16.5790   51.8170 C.3       1 SUB1        0.092
     35 OG1        -0.7220   16.6010   51.1310 O.3       1 SUB1       -0.387
     36 CG2        -2.6010   17.9600   51.7130 C.3       1 SUB1       -0.035
     37 N          -3.9010   16.2190   54.3940 N.am      1 SUB1       -0.261
     38 CA         -5.1070   15.6130   54.9280 C.3       1 SUB1        0.158
     39 CB         -5.9820   16.6610   55.6130 C.3       1 SUB1        0.106
     40 OG         -5.2850   17.2780   56.6770 O.3       1 SUB1       -0.318
     41 C          -5.8590   14.9470   53.7880 C.2       1 SUB1        0.209
     42 O          -5.8030   15.4050   52.6480 O.2       1 SUB1       -0.394
     43 P          -5.0170   18.8480   56.6710 P.3       1 SUB1        0.205
     44 O1P        -3.9390   19.0530   57.6570 O.co2     1 SUB1       -0.535
     45 O2P        -4.4100   19.2630   55.3770 O.co2     1 SUB1       -0.535
     46 O3P        -6.3310   19.5260   56.7830 O.co2     1 SUB1       -0.535
     47 N          -6.5710   13.8500   54.0790 N.am      1 SUB1       -0.250
     48 CA         -7.3330   13.1220   53.0580 C.3       1 SUB1        0.134
     49 C          -8.2890   13.9690   52.2170 C.2       1 SUB1        0.205
     50 O          -8.5020   13.6780   51.0390 O.2       1 SUB1       -0.394
     51 CB         -8.0430   12.0290   53.8620 C.3       1 SUB1       -0.010
     52 CG         -8.0700   12.5660   55.2570 C.3       1 SUB1       -0.028
     53 CD         -6.7440   13.2340   55.4050 C.3       1 SUB1        0.037
     54 N          -8.8630   15.0110   52.8120 N.am      1 SUB1       -0.266
     55 CA         -9.7770   15.8870   52.0810 C.3       1 SUB1        0.104
     56 C          -9.7910   17.2730   52.7090 C.2       1 SUB1        0.055
     57 O          -9.1050   17.4520   53.7380 O.co2     1 SUB1       -0.564
     58 CB        -11.1990   15.3100   52.0730 C.3       1 SUB1        0.078
     59 OG        -11.8200   15.4340   53.3400 O.3       1 SUB1       -0.389
     60 OXT       -10.4850   18.1590   52.1670 O.co2     1 SUB1       -0.564
     61 H11         9.3647   14.8334   53.5825 H         1 SUB1        0.202
     62 H12         8.7290   14.1109   54.9179 H         1 SUB1        0.202
     63 H13         8.7321   15.7522   54.7929 H         1 SUB1        0.202
     64 H21         7.2233   15.6963   52.9332 H         1 SUB1        0.112
     65 H51         7.3371   12.6804   53.4774 H         1 SUB1        0.049
     66 H52         7.8299   13.5337   51.9755 H         1 SUB1        0.049
     67 H71         5.3839   11.4193   53.1328 H         1 SUB1        0.053
     68 H81         5.6738   15.2379   51.2194 H         1 SUB1        0.053
     69 H91         3.0813   11.1457   52.2415 H         1 SUB1        0.052
     70 H101        3.3706   14.9681   50.3285 H         1 SUB1        0.052
     71 H121        1.5630   13.6685   50.2390 H         1 SUB1        0.246
     72 H131        6.2013   16.7742   53.5628 H         1 SUB1        0.189
     73 H141        5.0983   15.2854   55.9890 H         1 SUB1        0.083
     74 H151        3.9737   17.8503   56.2998 H         1 SUB1        0.066
     75 H152        5.6794   18.1208   55.8057 H         1 SUB1        0.066
     76 H241        1.5786   14.1732   53.3273 H         1 SUB1        0.080
     77 H271        1.3396   12.2610   54.6006 H         1 SUB1        0.031
     78 H272       -0.0667   13.1213   55.3141 H         1 SUB1        0.031
     79 H281        1.8579   12.3007   56.9356 H         1 SUB1        0.029
     80 H282        1.2430   13.9776   57.1274 H         1 SUB1        0.029
     81 H291        3.7342   13.0236   55.6067 H         1 SUB1        0.052
     82 H292        3.6114   14.3216   56.8423 H         1 SUB1        0.052
     83 H301       -0.5045   14.5601   52.7662 H         1 SUB1        0.188
     84 H311       -1.5658   17.1217   53.8714 H         1 SUB1        0.083
     85 H341       -2.6471   15.8374   51.3534 H         1 SUB1        0.064
     86 H351       -0.8633   16.8310   50.2201 H         1 SUB1        0.210
     87 H361       -2.7631   18.2103   50.6542 H         1 SUB1        0.026
     88 H362       -1.9255   18.7008   52.1656 H         1 SUB1        0.026
     89 H363       -3.5644   17.9697   52.2437 H         1 SUB1        0.026
     90 H371       -3.7747   17.2090   54.4565 H         1 SUB1        0.188
     91 H381       -4.8278   14.8495   55.6690 H         1 SUB1        0.083
     92 H391       -6.8858   16.1741   56.0081 H         1 SUB1        0.066
     93 H392       -6.2698   17.4271   54.8780 H         1 SUB1        0.066
     94 H481       -6.6254   12.6534   52.3582 H         1 SUB1        0.080
     95 H511       -7.4818   11.0840   53.8177 H         1 SUB1        0.031
     96 H512       -9.0638   11.8673   53.4855 H         1 SUB1        0.031
     97 H521       -8.1829   11.7522   55.9884 H         1 SUB1        0.029
     98 H522       -8.8895   13.2888   55.3832 H         1 SUB1        0.029
     99 H531       -5.9484   12.5040   55.6149 H         1 SUB1        0.052
    100 H532       -6.7641   13.9935   56.2005 H         1 SUB1        0.052
    101 H541       -8.6662   15.1981   53.7744 H         1 SUB1        0.190
    102 H551       -9.4253   15.9716   51.0422 H         1 SUB1        0.080
    103 H581      -11.1504   14.2450   51.8022 H         1 SUB1        0.062
    104 H582      -11.7995   15.8511   51.3269 H         1 SUB1        0.062
    105 H591      -12.6958   15.0681   53.2994 H         1 SUB1        0.210
@<TRIPOS>BOND
     1    3    2 1  
     2    2    5 1  
     3    2    1 1  
     4    5    6 1  
     5    6    8 ar 
     6    6    7 ar 
     7    7    9 ar 
     8    9   11 ar 
     9   11   12 1  
    10   10   11 ar 
    11    8   10 ar 
    12    3    4 2  
    13   13   14 1  
    14   14   17 1  
    15   14   15 1  
    16   15   16 1  
    17   16   19 1  
    18   19   22 2  
    19   19   21 2  
    20   19   20 2  
    21   17   18 2  
    22   23   24 1  
    23   24   27 1  
    24   24   25 1  
    25   25   26 2  
    26   28   27 1  
    27   29   28 1  
    28   23   29 1  
    29   31   32 1  
    30   31   34 1  
    31   30   31 1  
    32   34   35 1  
    33   34   36 1  
    34   32   33 2  
    35   37   38 1  
    36   38   41 1  
    37   38   39 1  
    38   39   40 1  
    39   40   43 1  
    40   43   46 2  
    41   43   45 2  
    42   43   44 2  
    43   41   42 2  
    44   47   48 1  
    45   48   51 1  
    46   48   49 1  
    47   49   50 2  
    48   52   51 1  
    49   53   52 1  
    50   47   53 1  
    51   55   56 1  
    52   55   58 1  
    53   54   55 1  
    54   58   59 1  
    55   56   60 2  
    56   56   57 2  
    57   25   30 am 
    58   49   54 am 
    59   41   47 am 
    60   32   37 am 
    61   17   23 am 
    62   13    3 am 
    63    1   61 1  
    64    1   62 1  
    65    1   63 1  
    66    2   64 1  
    67    5   65 1  
    68    5   66 1  
    69    7   67 1  
    70    8   68 1  
    71    9   69 1  
    72   10   70 1  
    73   12   71 1  
    74   13   72 1  
    75   14   73 1  
    76   15   74 1  
    77   15   75 1  
    78   24   76 1  
    79   27   77 1  
    80   27   78 1  
    81   28   79 1  
    82   28   80 1  
    83   29   81 1  
    84   29   82 1  
    85   30   83 1  
    86   31   84 1  
    87   34   85 1  
    88   35   86 1  
    89   36   87 1  
    90   36   88 1  
    91   36   89 1  
    92   37   90 1  
    93   38   91 1  
    94   39   92 1  
    95   39   93 1  
    96   48   94 1  
    97   51   95 1  
    98   51   96 1  
    99   52   97 1  
   100   52   98 1  
   101   53   99 1  
   102   53  100 1  
   103   54  101 1  
   104   55  102 1  
   105   58  103 1  
   106   58  104 1  
   107   59  105 1  
@<TRIPOS>SUBSTRUCTURE
     1 SUB1        1 GROUP

