1cea_ligand
  -I-interpret- 

 22 21  0  0  0  0  0  0  0  0999 V2000
   37.1580    4.4210  -30.0460 C   0  0  0  0  0
   38.1450    3.6840  -30.2690 O   0  0  0  0  0
   36.9190    5.6690  -30.0140 O   0  5  0  0  0
   35.9070    3.5120  -29.7010 C   0  0  0  0  0
   35.4640    3.0680  -31.0940 C   0  0  0  0  0
   33.9160    2.9280  -31.0900 C   0  0  0  0  0
   33.5780    1.4560  -30.8870 C   0  0  0  0  0
   32.3200    1.0240  -31.4940 C   0  0  0  0  0
   32.4130    0.6400  -32.9180 N   0  3  0  0  0
   36.1896    2.6457  -29.0849 H   0  0  0  0  0
   35.1121    4.0846  -29.2009 H   0  0  0  0  0
   35.7573    3.8194  -31.8419 H   0  0  0  0  0
   35.9144    2.0958  -31.3425 H   0  0  0  0  0
   33.4836    3.5164  -30.2673 H   0  0  0  0  0
   33.5016    3.2662  -32.0512 H   0  0  0  0  0
   34.3832    0.8496  -31.3272 H   0  0  0  0  0
   33.5087    1.2601  -29.8068 H   0  0  0  0  0
   31.9483    0.1497  -30.9396 H   0  0  0  0  0
   31.5968    1.8496  -31.4210 H   0  0  0  0  0
   31.5008    0.3595  -33.2425 H   0  0  0  0  0
   32.7291    1.4249  -33.4657 H   0  0  0  0  0
   33.0512   -0.1328  -33.0246 H   0  0  0  0  0
  1  2  2  0  0  0
  1  3  1  0  0  0
  1  4  1  0  0  0
  4  5  1  0  0  0
  5  6  1  0  0  0
  6  7  1  0  0  0
  7  8  1  0  0  0
  8  9  1  0  0  0
  4 10  1  0  0  0
  4 11  1  0  0  0
  5 12  1  0  0  0
  5 13  1  0  0  0
  6 14  1  0  0  0
  6 15  1  0  0  0
  7 16  1  0  0  0
  7 17  1  0  0  0
  8 18  1  0  0  0
  8 19  1  0  0  0
  9 20  1  0  0  0
  9 21  1  0  0  0
  9 22  1  0  0  0
M  END
$$$$
