### 
### Created by X-TOOL on Tue Oct 25 00:27:15 2005
### 

@<TRIPOS>MOLECULE
1cea_ligand
   22    21     1     0     0
SMALL
GAST_HUCK


@<TRIPOS>ATOM
      1 C1         37.1580    4.4210  -30.0460 C.2       1 SUB1        0.028
      2 O1         38.1450    3.6840  -30.2690 O.co2     1 SUB1       -0.567
      3 O2         36.9190    5.6690  -30.0140 O.co2     1 SUB1       -0.567
      4 C2         35.9070    3.5120  -29.7010 C.3       1 SUB1       -0.014
      5 C3         35.4640    3.0680  -31.0940 C.3       1 SUB1       -0.041
      6 C4         33.9160    2.9280  -31.0900 C.3       1 SUB1       -0.045
      7 C5         33.5780    1.4560  -30.8870 C.3       1 SUB1       -0.012
      8 C6         32.3200    1.0240  -31.4940 C.3       1 SUB1       -0.035
      9 N6         32.4130    0.6400  -32.9180 N.4       1 SUB1        0.219
     10 H41        36.1896    2.6457  -29.0849 H         1 SUB1        0.048
     11 H42        35.1121    4.0846  -29.2009 H         1 SUB1        0.048
     12 H51        35.7573    3.8194  -31.8419 H         1 SUB1        0.030
     13 H52        35.9144    2.0958  -31.3425 H         1 SUB1        0.030
     14 H61        33.4836    3.5164  -30.2673 H         1 SUB1        0.027
     15 H62        33.5016    3.2662  -32.0512 H         1 SUB1        0.027
     16 H71        34.3832    0.8496  -31.3272 H         1 SUB1        0.032
     17 H72        33.5087    1.2601  -29.8068 H         1 SUB1        0.032
     18 H81        31.9483    0.1497  -30.9396 H         1 SUB1        0.081
     19 H82        31.5968    1.8496  -31.4210 H         1 SUB1        0.081
     20 H91        31.5008    0.3595  -33.2425 H         1 SUB1        0.199
     21 H92        32.7291    1.4249  -33.4657 H         1 SUB1        0.199
     22 H93        33.0512   -0.1328  -33.0246 H         1 SUB1        0.199
@<TRIPOS>BOND
     1    1    2 2  
     2    1    3 2  
     3    1    4 1  
     4    4    5 1  
     5    5    6 1  
     6    6    7 1  
     7    7    8 1  
     8    8    9 1  
     9    4   10 1  
    10    4   11 1  
    11    5   12 1  
    12    5   13 1  
    13    6   14 1  
    14    6   15 1  
    15    7   16 1  
    16    7   17 1  
    17    8   18 1  
    18    8   19 1  
    19    9   20 1  
    20    9   21 1  
    21    9   22 1  
@<TRIPOS>SUBSTRUCTURE
     1 SUB1        1 GROUP

