2ewb_ligand
  -I-interpret- 

 39 40  0  0  0  0  0  0  0  0999 V2000
   70.8920   50.9340   21.6910 C   0  0  0  0  0
   69.5490   50.6460   21.9880 C   0  0  0  0  0
   69.2400   49.4540   22.6750 C   0  0  0  0  0
   70.2630   48.5460   23.0640 C   0  0  0  0  0
   71.6150   48.8420   22.7620 C   0  0  0  0  0
   71.9330   50.0410   22.0750 C   0  0  0  0  0
   66.2400   49.9210   19.6000 C   0  0  0  0  0
   65.8970   49.4130   21.0150 C   0  0  0  0  0
   67.7420   49.9840   19.3070 C   0  0  0  0  0
   68.1060   51.4100   19.7000 C   0  0  0  0  0
   66.9760   52.1600   19.0450 C   0  0  0  0  0
   62.6680   53.2860   19.3200 C   0  0  0  0  0
   64.0380   52.9360   18.6940 C   0  0  0  0  0
   64.4920   51.5100   19.0410 C   0  0  0  0  0
   64.0020   53.2110   17.1850 C   0  0  0  0  0
   66.1820   48.2540   21.3310 O   0  0  0  0  0
   65.3420   50.1800   21.8110 O   0  5  0  0  0
   63.6610   50.5940   19.0620 O   0  0  0  0  0
   65.8040   51.3010   19.3300 N   0  0  0  0  0
   68.2350   51.7890   21.4790 S   0  0  0  0  0
   63.0650   52.0510   16.2040 S   0  0  0  0  0
   71.1403   51.8528   21.1598 H   0  0  0  0  0
   68.2009   49.2250   22.9116 H   0  0  0  0  0
   70.0081   47.6270   23.5918 H   0  0  0  0  0
   72.4061   48.1522   23.0560 H   0  0  0  0  0
   72.9709   50.2785   21.8415 H   0  0  0  0  0
   65.7176   49.1872   18.9862 H   0  0  0  0  0
   67.9803   49.7575   18.2678 H   0  0  0  0  0
   68.3122   49.2350   19.8565 H   0  0  0  0  0
   69.1191   51.6640   19.3882 H   0  0  0  0  0
   67.1351   52.3208   17.9787 H   0  0  0  0  0
   66.8618   53.1743   19.4275 H   0  0  0  0  0
   61.9131   52.5920   18.9504 H   0  0  0  0  0
   62.7351   53.2077   20.4051 H   0  0  0  0  0
   62.3934   54.3042   19.0442 H   0  0  0  0  0
   64.7983   53.5834   19.1310 H   0  0  0  0  0
   65.0327   53.1461   16.8363 H   0  0  0  0  0
   63.5180   54.1797   17.0608 H   0  0  0  0  0
   63.1198   52.4092   14.9243 H   0  0  0  0  0
  2  1  4  0  0  0
  1  6  4  0  0  0
  2  3  4  0  0  0
 20  2  1  0  0  0
  3  4  4  0  0  0
  4  5  4  0  0  0
  6  5  4  0  0  0
  7  8  1  0  0  0
  7  9  1  0  0  0
 19  7  1  0  0  0
  8 16  2  0  0  0
  8 17  1  0  0  0
 10  9  1  0  0  0
 11 10  1  0  0  0
 10 20  1  0  0  0
 19 11  1  0  0  0
 13 12  1  0  0  0
 14 13  1  0  0  0
 13 15  1  0  0  0
 14 18  2  0  0  0
 14 19  1  0  0  0
 15 21  1  0  0  0
  1 22  1  0  0  0
  3 23  1  0  0  0
  4 24  1  0  0  0
  5 25  1  0  0  0
  6 26  1  0  0  0
  7 27  1  0  0  0
  9 28  1  0  0  0
  9 29  1  0  0  0
 10 30  1  0  0  0
 11 31  1  0  0  0
 11 32  1  0  0  0
 12 33  1  0  0  0
 12 34  1  0  0  0
 12 35  1  0  0  0
 13 36  1  0  0  0
 15 37  1  0  0  0
 15 38  1  0  0  0
 21 39  1  0  0  0
M  END
$$$$
