### 
### Created by X-TOOL on Sun Jun  3 12:05:54 2007
### 

@<TRIPOS>MOLECULE
2ewb_ligand
   39    40     1     0     0
SMALL
GAST_HUCK


@<TRIPOS>ATOM
      1 CZ1        70.8920   50.9340   21.6910 C.ar      1 SUB1       -0.050
      2 CZ2        69.5490   50.6460   21.9880 C.ar      1 SUB1        0.016
      3 CZ3        69.2400   49.4540   22.6750 C.ar      1 SUB1       -0.050
      4 CZ4        70.2630   48.5460   23.0640 C.ar      1 SUB1       -0.068
      5 CZ5        71.6150   48.8420   22.7620 C.ar      1 SUB1       -0.069
      6 CZ6        71.9330   50.0410   22.0750 C.ar      1 SUB1       -0.068
      7 CZ7        66.2400   49.9210   19.6000 C.3       1 SUB1        0.158
      8 CZ8        65.8970   49.4130   21.0150 C.2       1 SUB1        0.371
      9 CZ9        67.7420   49.9840   19.3070 C.3       1 SUB1        0.003
     10 CZ10       68.1060   51.4100   19.7000 C.3       1 SUB1        0.043
     11 CZ11       66.9760   52.1600   19.0450 C.3       1 SUB1        0.050
     12 CZ12       62.6680   53.2860   19.3200 C.3       1 SUB1       -0.045
     13 CZ13       64.0380   52.9360   18.6940 C.3       1 SUB1        0.055
     14 CZ14       64.4920   51.5100   19.0410 C.2       1 SUB1        0.184
     15 CZ15       64.0020   53.2110   17.1850 C.3       1 SUB1        0.010
     16 OZ1        66.1820   48.2540   21.3310 O.2       1 SUB1       -0.260
     17 OZ2        65.3420   50.1800   21.8110 O.2       1 SUB1       -0.260
     18 OZ3        63.6610   50.5940   19.0620 O.2       1 SUB1       -0.396
     19 NZ1        65.8040   51.3010   19.3300 N.am      1 SUB1       -0.251
     20 SZ1        68.2350   51.7890   21.4790 S.3       1 SUB1       -0.096
     21 SZ2        63.0650   52.0510   16.2040 S.3       1 SUB1       -0.176
     22 H          71.1403   51.8528   21.1598 H         1 SUB1        0.056
     23 H          68.2009   49.2250   22.9116 H         1 SUB1        0.056
     24 H          70.0081   47.6270   23.5918 H         1 SUB1        0.060
     25 H          72.4061   48.1522   23.0560 H         1 SUB1        0.056
     26 H          72.9709   50.2785   21.8415 H         1 SUB1        0.060
     27 H          65.7176   49.1872   18.9862 H         1 SUB1        0.078
     28 H          67.9803   49.7575   18.2678 H         1 SUB1        0.032
     29 H          68.3122   49.2350   19.8565 H         1 SUB1        0.032
     30 H          69.1191   51.6640   19.3882 H         1 SUB1        0.046
     31 H          67.1351   52.3208   17.9787 H         1 SUB1        0.054
     32 H          66.8618   53.1743   19.4275 H         1 SUB1        0.054
     33 H          61.9131   52.5920   18.9504 H         1 SUB1        0.026
     34 H          62.7351   53.2077   20.4051 H         1 SUB1        0.026
     35 H          62.3934   54.3042   19.0442 H         1 SUB1        0.026
     36 H          64.7983   53.5834   19.1310 H         1 SUB1        0.054
     37 H          65.0327   53.1461   16.8363 H         1 SUB1        0.040
     38 H          63.5180   54.1797   17.0608 H         1 SUB1        0.040
     39 H          63.1198   52.4092   14.9243 H         1 SUB1        0.102
@<TRIPOS>BOND
     1    2    1 ar 
     2    1    6 ar 
     3    2    3 ar 
     4   20    2 1  
     5    3    4 ar 
     6    4    5 ar 
     7    6    5 ar 
     8    7    8 1  
     9    7    9 1  
    10   19    7 1  
    11    8   16 2  
    12    8   17 2  
    13   10    9 1  
    14   11   10 1  
    15   10   20 1  
    16   19   11 1  
    17   13   12 1  
    18   14   13 1  
    19   13   15 1  
    20   14   18 2  
    21   14   19 am 
    22   15   21 1  
    23    1   22 1  
    24    3   23 1  
    25    4   24 1  
    26    5   25 1  
    27    6   26 1  
    28    7   27 1  
    29    9   28 1  
    30    9   29 1  
    31   10   30 1  
    32   11   31 1  
    33   11   32 1  
    34   12   33 1  
    35   12   34 1  
    36   12   35 1  
    37   13   36 1  
    38   15   37 1  
    39   15   38 1  
    40   21   39 1  
@<TRIPOS>SUBSTRUCTURE
     1 SUB1        1 GROUP

