1l2s_ligand
  -I-interpret- 

 26 27  0  0  0  0  0  0  0  0999 V2000
   23.9580    4.3210   13.8760 N   0  0  0  0  0
   22.7830    4.6990   13.2060 C   0  0  0  0  0
   21.7520    5.3460   13.9220 C   0  0  0  0  0
   22.6370    4.4260   11.8220 C   0  0  0  0  0
   20.5620    5.7140   13.2600 C   0  0  0  0  0
   21.4460    4.7960   11.1610 C   0  0  0  0  0
   20.4110    5.4330   11.8830 C   0  0  0  0  0
   25.2760    5.4300   13.8970 S   0  0  0  0  0
   25.0170    6.7010   15.2220 C   0  0  0  0  0
   26.4830    4.6860   14.1520 O   0  0  0  0  0
   25.3670    6.0870   12.6250 O   0  0  0  0  0
   24.7470    6.4870   16.5870 C   0  0  0  0  0
   25.0600    8.0870   15.0100 C   0  0  0  0  0
   24.6290    7.7630   17.2160 S   0  0  0  0  0
   24.6010    5.1790   17.2960 C   0  0  0  0  0
   24.8220    8.7390   16.2240 C   0  0  0  0  0
   24.7180    4.0210   16.6520 O   0  5  0  0  0
   24.3710    5.1850   18.4900 O   0  0  0  0  0
   24.0277    3.4320   14.3287 H   0  0  0  0  0
   21.8748    5.5593   14.9777 H   0  0  0  0  0
   23.4348    3.9364   11.2754 H   0  0  0  0  0
   19.7669    6.2101   13.8048 H   0  0  0  0  0
   21.3254    4.5923   10.1032 H   0  0  0  0  0
   25.2481    8.5758   14.0552 H   0  0  0  0  0
   24.7915    9.8171   16.3745 H   0  0  0  0  0
   18.9380    5.8670   11.0820 Cl  0  0  0  0  0
  1  8  1  0  0  0
  1  2  1  0  0  0
  2  4  4  0  0  0
  2  3  4  0  0  0
  3  5  4  0  0  0
  5  7  4  0  0  0
  7  6  4  0  0  0
  6  4  4  0  0  0
  8 11  2  0  0  0
  8 10  2  0  0  0
  8  9  1  0  0  0
  9 13  1  0  0  0
  9 12  2  0  0  0
 12 15  1  0  0  0
 12 14  1  0  0  0
 14 16  1  0  0  0
 16 13  2  0  0  0
 15 18  2  0  0  0
 15 17  1  0  0  0
  1 19  1  0  0  0
  3 20  1  0  0  0
  4 21  1  0  0  0
  5 22  1  0  0  0
  6 23  1  0  0  0
 13 24  1  0  0  0
 16 25  1  0  0  0
  7 26  1  0  0  0
M  END
$$$$
