### 
### Created by X-TOOL on Mon Oct 24 23:21:32 2005
### 

@<TRIPOS>MOLECULE
1l2s_ligand
   26    27     1     0     0
SMALL
GAST_HUCK


@<TRIPOS>ATOM
      1 N1         23.9580    4.3210   13.8760 N.am      1 SUB1       -0.188
      2 C2         22.7830    4.6990   13.2060 C.ar      1 SUB1        0.063
      3 C3         21.7520    5.3460   13.9220 C.ar      1 SUB1       -0.045
      4 C4         22.6370    4.4260   11.8220 C.ar      1 SUB1       -0.045
      5 C5         20.5620    5.7140   13.2600 C.ar      1 SUB1       -0.064
      6 C6         21.4460    4.7960   11.1610 C.ar      1 SUB1       -0.064
      7 C7         20.4110    5.4330   11.8830 C.ar      1 SUB1        0.022
      8 S13        25.2760    5.4300   13.8970 S.o2      1 SUB1        0.083
      9 C15        25.0170    6.7010   15.2220 C.2       1 SUB1        0.115
     10 O16        26.4830    4.6860   14.1520 O.2       1 SUB1       -0.147
     11 O17        25.3670    6.0870   12.6250 O.2       1 SUB1       -0.147
     12 C18        24.7470    6.4870   16.5870 C.2       1 SUB1        0.070
     13 C19        25.0600    8.0870   15.0100 C.2       1 SUB1       -0.037
     14 S20        24.6290    7.7630   17.2160 S.3       1 SUB1       -0.037
     15 C21        24.6010    5.1790   17.2960 C.2       1 SUB1        0.065
     16 C22        24.8220    8.7390   16.2240 C.2       1 SUB1        0.002
     17 O23        24.7180    4.0210   16.6520 O.co2     1 SUB1       -0.559
     18 O24        24.3710    5.1850   18.4900 O.co2     1 SUB1       -0.559
     19 H11        24.0277    3.4320   14.3287 H         1 SUB1        0.216
     20 H31        21.8748    5.5593   14.9777 H         1 SUB1        0.048
     21 H41        23.4348    3.9364   11.2754 H         1 SUB1        0.048
     22 H51        19.7669    6.2101   13.8048 H         1 SUB1        0.058
     23 H61        21.3254    4.5923   10.1032 H         1 SUB1        0.058
     24 H131       25.2481    8.5758   14.0552 H         1 SUB1        0.050
     25 H161       24.7915    9.8171   16.3745 H         1 SUB1        0.081
     26 CL8        18.9380    5.8670   11.0820 Cl        1 SUB1       -0.087
@<TRIPOS>BOND
     1    1    8 1  
     2    1    2 1  
     3    2    4 ar 
     4    2    3 ar 
     5    3    5 ar 
     6    5    7 ar 
     7    7    6 ar 
     8    6    4 ar 
     9    8   11 2  
    10    8   10 2  
    11    8    9 1  
    12    9   13 1  
    13    9   12 2  
    14   12   15 1  
    15   12   14 1  
    16   14   16 1  
    17   16   13 2  
    18   15   18 2  
    19   15   17 2  
    20    1   19 1  
    21    3   20 1  
    22    4   21 1  
    23    5   22 1  
    24    6   23 1  
    25   13   24 1  
    26   16   25 1  
    27    7   26 1  
@<TRIPOS>SUBSTRUCTURE
     1 SUB1        1 GROUP

