### 
### Created by X-TOOL on Tue Oct 25 00:11:23 2005
### 

@<TRIPOS>MOLECULE
1ro6_ligand
   41    43     1     0     0
SMALL
GAST_HUCK


@<TRIPOS>ATOM
      1 C5         32.3880   75.3670   22.0660 C.ar      1 SUB1       -0.055
      2 C6         32.0700   75.9080   20.8170 C.ar      1 SUB1       -0.039
      3 C7         31.7440   77.2840   20.6410 C.ar      1 SUB1        0.114
      4 C8         31.7800   78.1470   21.7500 C.ar      1 SUB1        0.112
      5 C9         32.0800   77.6010   23.0140 C.ar      1 SUB1       -0.048
      6 C10        32.3680   76.2310   23.1800 C.ar      1 SUB1       -0.080
      7 C3         32.7140   73.8820   22.1460 C.3       1 SUB1        0.022
      8 C2         34.0240   73.4890   22.8680 C.3       1 SUB1        0.050
      9 C1         33.5700   72.4390   23.8950 C.2       1 SUB1        0.178
     10 O1         34.2760   71.9940   24.7980 O.2       1 SUB1       -0.397
     11 N1         32.2890   72.1030   23.6680 N.am      1 SUB1       -0.285
     12 C4         31.6120   73.0950   22.8460 C.3       1 SUB1        0.044
     13 O3         31.3730   77.8860   19.4320 O.3       1 SUB1       -0.320
     14 C11        31.1640   77.0760   18.2680 C.3       1 SUB1        0.079
     15 C15        32.5030   76.7930   17.5870 C.3       1 SUB1       -0.023
     16 C14        32.8320   78.1180   16.9100 C.3       1 SUB1       -0.050
     17 C13        31.4860   78.6660   16.4470 C.3       1 SUB1       -0.050
     18 C12        30.4150   77.9020   17.2180 C.3       1 SUB1       -0.023
     19 O2         31.5020   79.4880   21.4880 O.3       1 SUB1       -0.329
     20 C16        31.6980   80.4640   22.5060 C.3       1 SUB1        0.055
     21 H111       31.7970   71.4170   24.2050 H         1 SUB1        0.185
     22 H81        34.7170   73.0320   22.1810 H         1 SUB1        0.053
     23 H82        34.5240   74.3060   23.3630 H         1 SUB1        0.053
     24 H121       31.0560   73.7050   23.5370 H         1 SUB1        0.054
     25 H122       30.9380   72.5890   22.1730 H         1 SUB1        0.054
     26 H71        32.7860   73.4930   21.1420 H         1 SUB1        0.048
     27 H61        32.5860   75.8520   24.1650 H         1 SUB1        0.044
     28 H51        32.0900   78.2470   23.8600 H         1 SUB1        0.049
     29 H21        32.0700   75.2390   19.9710 H         1 SUB1        0.045
     30 H201       31.5130   81.4510   22.1080 H         1 SUB1        0.057
     31 H202       31.0180   80.2990   23.3300 H         1 SUB1        0.057
     32 H203       32.7150   80.4430   22.8710 H         1 SUB1        0.057
     33 H181       29.8890   77.2420   16.5430 H         1 SUB1        0.029
     34 H182       29.6950   78.5710   17.6610 H         1 SUB1        0.029
     35 H171       31.3580   78.5120   15.3870 H         1 SUB1        0.027
     36 H172       31.4290   79.7280   16.6370 H         1 SUB1        0.027
     37 H161       33.5340   78.0020   16.0970 H         1 SUB1        0.027
     38 H162       33.2660   78.7970   17.6280 H         1 SUB1        0.027
     39 H151       33.2890   76.4770   18.2540 H         1 SUB1        0.029
     40 H152       32.3740   76.0200   16.8430 H         1 SUB1        0.029
     41 H141       30.5820   76.1900   18.4860 H         1 SUB1        0.064
@<TRIPOS>BOND
     1    1    2 ar 
     2    1    6 ar 
     3    1    7 1  
     4    2    3 ar 
     5    2   29 1  
     6    3    4 ar 
     7    3   13 1  
     8    4    5 ar 
     9    4   19 1  
    10    5    6 ar 
    11    5   28 1  
    12    6   27 1  
    13    7    8 1  
    14    7   12 1  
    15    7   26 1  
    16    8    9 1  
    17    8   22 1  
    18    8   23 1  
    19    9   10 2  
    20    9   11 am 
    21   11   12 1  
    22   11   21 1  
    23   12   24 1  
    24   12   25 1  
    25   13   14 1  
    26   14   15 1  
    27   14   18 1  
    28   14   41 1  
    29   15   16 1  
    30   15   39 1  
    31   15   40 1  
    32   16   17 1  
    33   16   37 1  
    34   16   38 1  
    35   17   18 1  
    36   17   35 1  
    37   17   36 1  
    38   18   33 1  
    39   18   34 1  
    40   19   20 1  
    41   20   30 1  
    42   20   31 1  
    43   20   32 1  
@<TRIPOS>SUBSTRUCTURE
     1 SUB1        1 GROUP

