1ro6_ligand
  -I-interpret- 

 41 43  0  0  0  0  0  0  0  0999 V2000
   32.3880   75.3670   22.0660 C   0  0  0  0  0
   32.0700   75.9080   20.8170 C   0  0  0  0  0
   31.7440   77.2840   20.6410 C   0  0  0  0  0
   31.7800   78.1470   21.7500 C   0  0  0  0  0
   32.0800   77.6010   23.0140 C   0  0  0  0  0
   32.3680   76.2310   23.1800 C   0  0  0  0  0
   32.7140   73.8820   22.1460 C   0  0  0  0  0
   34.0240   73.4890   22.8680 C   0  0  0  0  0
   33.5700   72.4390   23.8950 C   0  0  0  0  0
   34.2760   71.9940   24.7980 O   0  0  0  0  0
   32.2890   72.1030   23.6680 N   0  0  0  0  0
   31.6120   73.0950   22.8460 C   0  0  0  0  0
   31.3730   77.8860   19.4320 O   0  0  0  0  0
   31.1640   77.0760   18.2680 C   0  0  0  0  0
   32.5030   76.7930   17.5870 C   0  0  0  0  0
   32.8320   78.1180   16.9100 C   0  0  0  0  0
   31.4860   78.6660   16.4470 C   0  0  0  0  0
   30.4150   77.9020   17.2180 C   0  0  0  0  0
   31.5020   79.4880   21.4880 O   0  0  0  0  0
   31.6980   80.4640   22.5060 C   0  0  0  0  0
   31.7970   71.4170   24.2050 H   0  0  0  0  0
   34.7170   73.0320   22.1810 H   0  0  0  0  0
   34.5240   74.3060   23.3630 H   0  0  0  0  0
   31.0560   73.7050   23.5370 H   0  0  0  0  0
   30.9380   72.5890   22.1730 H   0  0  0  0  0
   32.7860   73.4930   21.1420 H   0  0  0  0  0
   32.5860   75.8520   24.1650 H   0  0  0  0  0
   32.0900   78.2470   23.8600 H   0  0  0  0  0
   32.0700   75.2390   19.9710 H   0  0  0  0  0
   31.5130   81.4510   22.1080 H   0  0  0  0  0
   31.0180   80.2990   23.3300 H   0  0  0  0  0
   32.7150   80.4430   22.8710 H   0  0  0  0  0
   29.8890   77.2420   16.5430 H   0  0  0  0  0
   29.6950   78.5710   17.6610 H   0  0  0  0  0
   31.3580   78.5120   15.3870 H   0  0  0  0  0
   31.4290   79.7280   16.6370 H   0  0  0  0  0
   33.5340   78.0020   16.0970 H   0  0  0  0  0
   33.2660   78.7970   17.6280 H   0  0  0  0  0
   33.2890   76.4770   18.2540 H   0  0  0  0  0
   32.3740   76.0200   16.8430 H   0  0  0  0  0
   30.5820   76.1900   18.4860 H   0  0  0  0  0
  1  2  4  0  0  0
  1  6  4  0  0  0
  1  7  1  0  0  0
  2  3  4  0  0  0
  2 29  1  0  0  0
  3  4  4  0  0  0
  3 13  1  0  0  0
  4  5  4  0  0  0
  4 19  1  0  0  0
  5  6  4  0  0  0
  5 28  1  0  0  0
  6 27  1  0  0  0
  7  8  1  0  0  0
  7 12  1  0  0  0
  7 26  1  0  0  0
  8  9  1  0  0  0
  8 22  1  0  0  0
  8 23  1  0  0  0
  9 10  2  0  0  0
  9 11  1  0  0  0
 11 12  1  0  0  0
 11 21  1  0  0  0
 12 24  1  0  0  0
 12 25  1  0  0  0
 13 14  1  0  0  0
 14 15  1  0  0  0
 14 18  1  0  0  0
 14 41  1  0  0  0
 15 16  1  0  0  0
 15 39  1  0  0  0
 15 40  1  0  0  0
 16 17  1  0  0  0
 16 37  1  0  0  0
 16 38  1  0  0  0
 17 18  1  0  0  0
 17 35  1  0  0  0
 17 36  1  0  0  0
 18 33  1  0  0  0
 18 34  1  0  0  0
 19 20  1  0  0  0
 20 30  1  0  0  0
 20 31  1  0  0  0
 20 32  1  0  0  0
M  END
$$$$
