### 
### Created by X-TOOL on Sun Jun  3 12:16:06 2007
### 

@<TRIPOS>MOLECULE
2f35_ligand
   38    39     1     0     0
SMALL
GAST_HUCK


@<TRIPOS>ATOM
      1 O1         -1.2690   -6.6560   14.3420 O.2       1 SUB1       -0.257
      2 C10        -1.6110   -7.3180   15.3520 C.2       1 SUB1        0.372
      3 O2         -1.7410   -8.5660   15.3400 O.2       1 SUB1       -0.257
      4 C22        -1.8850   -6.5910   16.6350 C.ar      1 SUB1        0.078
      5 C23        -1.4680   -7.1120   17.8600 C.ar      1 SUB1       -0.049
      6 C24        -1.7500   -6.4090   19.0390 C.ar      1 SUB1       -0.065
      7 C25        -2.4360   -5.1970   19.0220 C.ar      1 SUB1       -0.066
      8 C26        -2.8640   -4.6420   17.8260 C.ar      1 SUB1       -0.054
      9 C21        -2.6190   -5.3030   16.6370 C.ar      1 SUB1        0.004
     10 C17        -3.0810   -4.7130   15.3310 C.3       1 SUB1        0.095
     11 N6         -4.3010   -3.9020   15.4660 N.am      1 SUB1       -0.160
     12 C5         -5.5890   -4.4390   15.5960 C.2       1 SUB1        0.336
     13 O8         -5.7670   -5.6790   15.6440 O.2       1 SUB1       -0.381
     14 C1         -4.1410   -2.5150   15.4140 C.2       1 SUB1        0.187
     15 O7         -2.9900   -2.0900   15.2800 O.2       1 SUB1       -0.412
     16 C2         -5.2300   -1.6630   15.5060 C.2       1 SUB1        0.007
     17 C3         -6.5030   -2.2140   15.6410 C.2       1 SUB1        0.057
     18 N4         -6.6870   -3.5430   15.6980 N.am      1 SUB1       -0.182
     19 CB         -8.0500   -4.0790   15.8100 C.3       1 SUB1        0.125
     20 CA         -8.4820   -4.4880   14.3860 C.3       1 SUB1        0.117
     21 N          -8.2560   -3.4230   13.4080 N.4       1 SUB1        0.238
     22 C          -9.9370   -4.8630   14.4070 C.2       1 SUB1        0.395
     23 O         -10.7210   -4.2070   13.6910 O.2       1 SUB1       -0.256
     24 OXT       -10.3280   -5.8080   15.1360 O.2       1 SUB1       -0.256
     25 H          -0.9275   -8.0577   17.8998 H         1 SUB1        0.064
     26 H          -1.4241   -6.8213   19.9939 H         1 SUB1        0.057
     27 H          -2.6386   -4.6791   19.9595 H         1 SUB1        0.062
     28 H          -3.3916   -3.6882   17.8232 H         1 SUB1        0.056
     29 H          -3.3040   -5.5380   14.6544 H         1 SUB1        0.075
     30 H          -2.2886   -4.0618   14.9621 H         1 SUB1        0.075
     31 H          -5.0935   -0.5821   15.4734 H         1 SUB1        0.026
     32 H          -7.3672   -1.5525   15.7016 H         1 SUB1        0.118
     33 H          -8.7287   -3.3329   16.2233 H         1 SUB1        0.069
     34 H          -8.0776   -4.9339   16.4856 H         1 SUB1        0.069
     35 H          -7.8717   -5.3375   14.0792 H         1 SUB1        0.111
     36 H          -8.5560   -3.7403   12.4862 H         1 SUB1        0.201
     37 H          -8.7920   -2.5976   13.6759 H         1 SUB1        0.201
     38 H          -7.2630   -3.1915   13.3826 H         1 SUB1        0.201
@<TRIPOS>BOND
     1    1    2 2  
     2    2    3 2  
     3    2    4 1  
     4    4    5 ar 
     5    4    9 ar 
     6    5    6 ar 
     7    6    7 ar 
     8    7    8 ar 
     9    8    9 ar 
    10    9   10 1  
    11   10   11 1  
    12   11   12 am 
    13   11   14 am 
    14   12   13 2  
    15   12   18 am 
    16   14   15 2  
    17   14   16 1  
    18   16   17 2  
    19   17   18 1  
    20   18   19 1  
    21   19   20 1  
    22   20   21 1  
    23   20   22 1  
    24   22   23 2  
    25   22   24 2  
    26    5   25 1  
    27    6   26 1  
    28    7   27 1  
    29    8   28 1  
    30   10   29 1  
    31   10   30 1  
    32   16   31 1  
    33   17   32 1  
    34   19   33 1  
    35   19   34 1  
    36   20   35 1  
    37   21   36 1  
    38   21   37 1  
    39   21   38 1  
@<TRIPOS>SUBSTRUCTURE
     1 SUB1        1 GROUP

