2f35_ligand
  -I-interpret- 

 38 39  0  0  0  0  0  0  0  0999 V2000
   -1.2690   -6.6560   14.3420 O   0  5  0  0  0
   -1.6110   -7.3180   15.3520 C   0  0  0  0  0
   -1.7410   -8.5660   15.3400 O   0  0  0  0  0
   -1.8850   -6.5910   16.6350 C   0  0  0  0  0
   -1.4680   -7.1120   17.8600 C   0  0  0  0  0
   -1.7500   -6.4090   19.0390 C   0  0  0  0  0
   -2.4360   -5.1970   19.0220 C   0  0  0  0  0
   -2.8640   -4.6420   17.8260 C   0  0  0  0  0
   -2.6190   -5.3030   16.6370 C   0  0  0  0  0
   -3.0810   -4.7130   15.3310 C   0  0  0  0  0
   -4.3010   -3.9020   15.4660 N   0  0  0  0  0
   -5.5890   -4.4390   15.5960 C   0  0  0  0  0
   -5.7670   -5.6790   15.6440 O   0  0  0  0  0
   -4.1410   -2.5150   15.4140 C   0  0  0  0  0
   -2.9900   -2.0900   15.2800 O   0  0  0  0  0
   -5.2300   -1.6630   15.5060 C   0  0  0  0  0
   -6.5030   -2.2140   15.6410 C   0  0  0  0  0
   -6.6870   -3.5430   15.6980 N   0  0  0  0  0
   -8.0500   -4.0790   15.8100 C   0  0  0  0  0
   -8.4820   -4.4880   14.3860 C   0  0  0  0  0
   -8.2560   -3.4230   13.4080 N   0  3  0  0  0
   -9.9370   -4.8630   14.4070 C   0  0  0  0  0
  -10.7210   -4.2070   13.6910 O   0  0  0  0  0
  -10.3280   -5.8080   15.1360 O   0  5  0  0  0
   -0.9275   -8.0577   17.8998 H   0  0  0  0  0
   -1.4241   -6.8213   19.9939 H   0  0  0  0  0
   -2.6386   -4.6791   19.9595 H   0  0  0  0  0
   -3.3916   -3.6882   17.8232 H   0  0  0  0  0
   -3.3040   -5.5380   14.6544 H   0  0  0  0  0
   -2.2886   -4.0618   14.9621 H   0  0  0  0  0
   -5.0935   -0.5821   15.4734 H   0  0  0  0  0
   -7.3672   -1.5525   15.7016 H   0  0  0  0  0
   -8.7287   -3.3329   16.2233 H   0  0  0  0  0
   -8.0776   -4.9339   16.4856 H   0  0  0  0  0
   -7.8717   -5.3375   14.0792 H   0  0  0  0  0
   -8.5560   -3.7403   12.4862 H   0  0  0  0  0
   -8.7920   -2.5976   13.6759 H   0  0  0  0  0
   -7.2630   -3.1915   13.3826 H   0  0  0  0  0
  1  2  1  0  0  0
  2  3  2  0  0  0
  2  4  1  0  0  0
  4  5  4  0  0  0
  4  9  4  0  0  0
  5  6  4  0  0  0
  6  7  4  0  0  0
  7  8  4  0  0  0
  8  9  4  0  0  0
  9 10  1  0  0  0
 10 11  1  0  0  0
 11 12  1  0  0  0
 11 14  1  0  0  0
 12 13  2  0  0  0
 12 18  1  0  0  0
 14 15  2  0  0  0
 14 16  1  0  0  0
 16 17  2  0  0  0
 17 18  1  0  0  0
 18 19  1  0  0  0
 19 20  1  0  0  0
 20 21  1  0  0  0
 20 22  1  0  0  0
 22 23  2  0  0  0
 22 24  1  0  0  0
  5 25  1  0  0  0
  6 26  1  0  0  0
  7 27  1  0  0  0
  8 28  1  0  0  0
 10 29  1  0  0  0
 10 30  1  0  0  0
 16 31  1  0  0  0
 17 32  1  0  0  0
 19 33  1  0  0  0
 19 34  1  0  0  0
 20 35  1  0  0  0
 21 36  1  0  0  0
 21 37  1  0  0  0
 21 38  1  0  0  0
M  END
$$$$
