### 
### Created by X-TOOL on Tue Oct 25 01:53:12 2005
### 

@<TRIPOS>MOLECULE
1bnn_ligand
   37    39     1     0     0
SMALL
GAST_HUCK


@<TRIPOS>ATOM
      1 H41        -3.1637    4.3560   12.1518 H         1 SUB1        0.057
      2 H42        -1.7012    5.2643   12.6644 H         1 SUB1        0.057
      3 C3         -5.1960    2.0290   15.9090 C.2       1 SUB1        0.159
      4 C9         -2.6490    4.8220   13.0050 C.3       1 SUB1        0.062
      5 C10        -2.3760    3.7780   14.0760 C.3       1 SUB1       -0.007
      6 C19        -2.4870    9.1280   12.4120 C.ar      1 SUB1       -0.086
      7 C20        -1.8940    9.6180   13.5640 C.ar      1 SUB1       -0.050
      8 C21        -1.8870    8.8140   14.7220 C.ar      1 SUB1        0.075
      9 C22        -2.4470    7.5520   14.7580 C.ar      1 SUB1       -0.018
     10 C24        -0.7180   10.5010   15.8270 C.3       1 SUB1        0.059
     11 N21        -5.5050   -0.6380   16.3660 N.am      1 SUB1       -0.261
     12 S1         -5.8570    0.7240   16.8220 S.o2      1 SUB1        0.074
     13 O1A        -5.2790    0.8820   18.1040 O.2       1 SUB1       -0.150
     14 O2A        -7.2380    0.9340   16.6990 O.2       1 SUB1       -0.150
     15 S2         -6.1660    3.3910   15.5220 S.3       1 SUB1       -0.001
     16 C6         -4.8230    4.0290   14.7000 C.2       1 SUB1        0.162
     17 C5         -3.6450    3.2420   14.7300 C.2       1 SUB1       -0.032
     18 C4         -3.8970    2.0820   15.4310 C.2       1 SUB1       -0.045
     19 N8         -3.4920    5.8510   13.5870 N.am      1 SUB1       -0.176
     20 S7         -4.9490    5.5190   13.8560 S.o2      1 SUB1        0.093
     21 O3B        -5.7560    5.1940   12.6450 O.2       1 SUB1       -0.146
     22 O4B        -5.7520    6.5720   14.5300 O.2       1 SUB1       -0.146
     23 C17        -3.0190    7.1020   13.5910 C.ar      1 SUB1        0.057
     24 C18        -3.0580    7.8580   12.4180 C.ar      1 SUB1       -0.056
     25 O23        -1.3400    9.1940   15.8370 O.3       1 SUB1       -0.326
     26 H51        -1.8382    2.9366   13.6148 H         1 SUB1        0.040
     27 H52        -1.7465    4.2328   14.8550 H         1 SUB1        0.040
     28 H61        -2.5064    9.7300   11.5107 H         1 SUB1        0.055
     29 H71        -1.4427   10.6035   13.5749 H         1 SUB1        0.040
     30 H91        -2.4363    6.9482   15.6582 H         1 SUB1        0.040
     31 H101       -0.2921   10.7120   16.8190 H         1 SUB1        0.058
     32 H102       -1.4716   11.2639   15.5817 H         1 SUB1        0.058
     33 H103        0.0824   10.5204   15.0727 H         1 SUB1        0.058
     34 H111       -5.8607   -1.4422   16.8588 H         1 SUB1        0.163
     35 H181       -3.1592    1.2971   15.5907 H         1 SUB1        0.041
     36 H241       -3.5263    7.4618   11.5242 H         1 SUB1        0.039
     37 H112       -4.9141   -0.7612   15.5687 H         1 SUB1        0.163
@<TRIPOS>BOND
     1    3   18 2  
     2    3   15 1  
     3    3   12 1  
     4   12   11 1  
     5   12   14 2  
     6   12   13 2  
     7   15   16 1  
     8   16   20 1  
     9   16   17 2  
    10   17   18 1  
    11   17    5 1  
    12    5    4 1  
    13    4   19 1  
    14   19   20 1  
    15   19   23 1  
    16   23    9 ar 
    17   23   24 ar 
    18   24    6 ar 
    19    6    7 ar 
    20    7    8 ar 
    21    8   25 1  
    22    8    9 ar 
    23   25   10 1  
    24   20   22 2  
    25   20   21 2  
    26    4    1 1  
    27    4    2 1  
    28    5   26 1  
    29    5   27 1  
    30    6   28 1  
    31    7   29 1  
    32    9   30 1  
    33   10   31 1  
    34   10   32 1  
    35   10   33 1  
    36   11   34 1  
    37   18   35 1  
    38   24   36 1  
    39   11   37 1  
@<TRIPOS>SUBSTRUCTURE
     1 SUB1        1 GROUP

