1bnn_ligand
  -I-interpret- 

 37 39  0  0  0  0  0  0  0  0999 V2000
   -3.1637    4.3560   12.1518 H   0  0  0  0  0
   -1.7012    5.2643   12.6644 H   0  0  0  0  0
   -5.1960    2.0290   15.9090 C   0  0  0  0  0
   -2.6490    4.8220   13.0050 C   0  0  0  0  0
   -2.3760    3.7780   14.0760 C   0  0  0  0  0
   -2.4870    9.1280   12.4120 C   0  0  0  0  0
   -1.8940    9.6180   13.5640 C   0  0  0  0  0
   -1.8870    8.8140   14.7220 C   0  0  0  0  0
   -2.4470    7.5520   14.7580 C   0  0  0  0  0
   -0.7180   10.5010   15.8270 C   0  0  0  0  0
   -5.5050   -0.6380   16.3660 N   0  0  0  0  0
   -5.8570    0.7240   16.8220 S   0  0  0  0  0
   -5.2790    0.8820   18.1040 O   0  0  0  0  0
   -7.2380    0.9340   16.6990 O   0  0  0  0  0
   -6.1660    3.3910   15.5220 S   0  0  0  0  0
   -4.8230    4.0290   14.7000 C   0  0  0  0  0
   -3.6450    3.2420   14.7300 C   0  0  0  0  0
   -3.8970    2.0820   15.4310 C   0  0  0  0  0
   -3.4920    5.8510   13.5870 N   0  0  0  0  0
   -4.9490    5.5190   13.8560 S   0  0  0  0  0
   -5.7560    5.1940   12.6450 O   0  0  0  0  0
   -5.7520    6.5720   14.5300 O   0  0  0  0  0
   -3.0190    7.1020   13.5910 C   0  0  0  0  0
   -3.0580    7.8580   12.4180 C   0  0  0  0  0
   -1.3400    9.1940   15.8370 O   0  0  0  0  0
   -1.8382    2.9366   13.6148 H   0  0  0  0  0
   -1.7465    4.2328   14.8550 H   0  0  0  0  0
   -2.5064    9.7300   11.5107 H   0  0  0  0  0
   -1.4427   10.6035   13.5749 H   0  0  0  0  0
   -2.4363    6.9482   15.6582 H   0  0  0  0  0
   -0.2921   10.7120   16.8190 H   0  0  0  0  0
   -1.4716   11.2639   15.5817 H   0  0  0  0  0
    0.0824   10.5204   15.0727 H   0  0  0  0  0
   -5.8607   -1.4422   16.8588 H   0  0  0  0  0
   -3.1592    1.2971   15.5907 H   0  0  0  0  0
   -3.5263    7.4618   11.5242 H   0  0  0  0  0
   -4.9141   -0.7612   15.5687 H   0  0  0  0  0
  3 18  2  0  0  0
  3 15  1  0  0  0
  3 12  1  0  0  0
 12 11  1  0  0  0
 12 14  2  0  0  0
 12 13  2  0  0  0
 15 16  1  0  0  0
 16 20  1  0  0  0
 16 17  2  0  0  0
 17 18  1  0  0  0
 17  5  1  0  0  0
  5  4  1  0  0  0
  4 19  1  0  0  0
 19 20  1  0  0  0
 19 23  1  0  0  0
 23  9  4  0  0  0
 23 24  4  0  0  0
 24  6  4  0  0  0
  6  7  4  0  0  0
  7  8  4  0  0  0
  8 25  1  0  0  0
  8  9  4  0  0  0
 25 10  1  0  0  0
 20 22  2  0  0  0
 20 21  2  0  0  0
  4  1  1  0  0  0
  4  2  1  0  0  0
  5 26  1  0  0  0
  5 27  1  0  0  0
  6 28  1  0  0  0
  7 29  1  0  0  0
  9 30  1  0  0  0
 10 31  1  0  0  0
 10 32  1  0  0  0
 10 33  1  0  0  0
 11 34  1  0  0  0
 18 35  1  0  0  0
 24 36  1  0  0  0
 11 37  1  0  0  0
M  END
$$$$
