### 
### Created by X-TOOL on Mon Oct 24 22:55:46 2005
### 

@<TRIPOS>MOLECULE
1tni_ligand
   27    27     1     0     0
SMALL
GAST_HUCK


@<TRIPOS>ATOM
      1 H141       28.6370   16.4470   13.7755 H         1 SUB1        0.081
      2 H142       28.3001   14.7886   14.3780 H         1 SUB1        0.081
      3 H151       30.0456   16.9134   15.4820 H         1 SUB1        0.032
      4 H152       30.7465   15.2597   15.5074 H         1 SUB1        0.032
      5 H161       28.0423   14.9037   16.1431 H         1 SUB1        0.029
      6 H162       28.5234   16.3881   17.0329 H         1 SUB1        0.029
      7 H171       28.7992   14.3883   18.3955 H         1 SUB1        0.043
      8 H172       30.3653   15.2079   18.0754 H         1 SUB1        0.043
      9 H191       28.7482   12.8702   15.6313 H         1 SUB1        0.056
     10 H201       29.3700   10.5053   15.4607 H         1 SUB1        0.060
     11 H211       31.1152    9.5117   16.8812 H         1 SUB1        0.056
     12 H221       32.2807   10.9332   18.5426 H         1 SUB1        0.060
     13 H231       31.6643   13.3102   18.7230 H         1 SUB1        0.056
     14 C1         29.0920   15.5130   14.1370 C.3       1 SUB1       -0.035
     15 C2         29.8140   15.8390   15.4380 C.3       1 SUB1       -0.011
     16 C3         28.8910   15.4650   16.5610 C.3       1 SUB1       -0.038
     17 C4         29.5580   14.6080   17.6300 C.3       1 SUB1       -0.019
     18 C1'        30.1700   13.2680   17.1930 C.ar      1 SUB1       -0.043
     19 C2'        29.5220   12.4630   16.2720 C.ar      1 SUB1       -0.060
     20 C3'        29.8790   11.1320   16.1840 C.ar      1 SUB1       -0.069
     21 C4'        30.8630   10.5610   16.9830 C.ar      1 SUB1       -0.069
     22 C5'        31.5100   11.3480   17.9030 C.ar      1 SUB1       -0.069
     23 C6'        31.1550   12.6880   17.9960 C.ar      1 SUB1       -0.060
     24 N          29.8680   14.9520   13.0270 N.4       1 SUB1        0.219
     25 H241       30.6240   14.3180   13.3620 H         1 SUB1        0.199
     26 H242       29.2940   14.4660   12.3160 H         1 SUB1        0.199
     27 H243       30.3150   15.7730   12.5570 H         1 SUB1        0.199
@<TRIPOS>BOND
     1   14    1 1  
     2   14    2 1  
     3   15    3 1  
     4   15    4 1  
     5   16    5 1  
     6   16    6 1  
     7   17    7 1  
     8   17    8 1  
     9   19    9 1  
    10   20   10 1  
    11   21   11 1  
    12   22   12 1  
    13   23   13 1  
    14   15   14 1  
    15   14   24 1  
    16   16   15 1  
    17   17   16 1  
    18   18   17 1  
    19   19   18 ar 
    20   18   23 ar 
    21   20   19 ar 
    22   21   20 ar 
    23   21   22 ar 
    24   22   23 ar 
    25   24   25 1  
    26   24   26 1  
    27   24   27 1  
@<TRIPOS>SUBSTRUCTURE
     1 SUB1        1 GROUP

