1tni_ligand
  -I-interpret- 

 27 27  0  0  0  0  0  0  0  0999 V2000
   28.6370   16.4470   13.7755 H   0  0  0  0  0
   28.3001   14.7886   14.3780 H   0  0  0  0  0
   30.0456   16.9134   15.4820 H   0  0  0  0  0
   30.7465   15.2597   15.5074 H   0  0  0  0  0
   28.0423   14.9037   16.1431 H   0  0  0  0  0
   28.5234   16.3881   17.0329 H   0  0  0  0  0
   28.7992   14.3883   18.3955 H   0  0  0  0  0
   30.3653   15.2079   18.0754 H   0  0  0  0  0
   28.7482   12.8702   15.6313 H   0  0  0  0  0
   29.3700   10.5053   15.4607 H   0  0  0  0  0
   31.1152    9.5117   16.8812 H   0  0  0  0  0
   32.2807   10.9332   18.5426 H   0  0  0  0  0
   31.6643   13.3102   18.7230 H   0  0  0  0  0
   29.0920   15.5130   14.1370 C   0  0  0  0  0
   29.8140   15.8390   15.4380 C   0  0  0  0  0
   28.8910   15.4650   16.5610 C   0  0  0  0  0
   29.5580   14.6080   17.6300 C   0  0  0  0  0
   30.1700   13.2680   17.1930 C   0  0  0  0  0
   29.5220   12.4630   16.2720 C   0  0  0  0  0
   29.8790   11.1320   16.1840 C   0  0  0  0  0
   30.8630   10.5610   16.9830 C   0  0  0  0  0
   31.5100   11.3480   17.9030 C   0  0  0  0  0
   31.1550   12.6880   17.9960 C   0  0  0  0  0
   29.8680   14.9520   13.0270 N   0  3  0  0  0
   30.6240   14.3180   13.3620 H   0  0  0  0  0
   29.2940   14.4660   12.3160 H   0  0  0  0  0
   30.3150   15.7730   12.5570 H   0  0  0  0  0
 14  1  1  0  0  0
 14  2  1  0  0  0
 15  3  1  0  0  0
 15  4  1  0  0  0
 16  5  1  0  0  0
 16  6  1  0  0  0
 17  7  1  0  0  0
 17  8  1  0  0  0
 19  9  1  0  0  0
 20 10  1  0  0  0
 21 11  1  0  0  0
 22 12  1  0  0  0
 23 13  1  0  0  0
 15 14  1  0  0  0
 14 24  1  0  0  0
 16 15  1  0  0  0
 17 16  1  0  0  0
 18 17  1  0  0  0
 19 18  4  0  0  0
 18 23  4  0  0  0
 20 19  4  0  0  0
 21 20  4  0  0  0
 21 22  4  0  0  0
 22 23  4  0  0  0
 24 25  1  0  0  0
 24 26  1  0  0  0
 24 27  1  0  0  0
M  END
$$$$
