### 
### Created by X-TOOL on Sun Jun  3 11:20:26 2007
### 

@<TRIPOS>MOLECULE
2erz_ligand
   39    41     1     0     0
SMALL
GAST_HUCK


@<TRIPOS>ATOM
      1 O1          3.2140   10.1010    5.0010 O.2       1 SUB1       -0.393
      2 C1          3.9290   10.0530    4.0080 C.2       1 SUB1        0.226
      3 N1          3.4180    9.8960    2.6910 N.am      1 SUB1       -0.225
      4 C2          4.1710    9.7230    1.5130 C.2       1 SUB1        0.050
      5 C3          5.6280    9.6860    1.6100 C.2       1 SUB1       -0.046
      6 C4          6.2700    9.8290    2.9300 C.ar      1 SUB1       -0.008
      7 C5          7.7840    9.7510    3.1200 C.ar      1 SUB1        0.106
      8 C6          8.3480    9.8820    4.4760 C.ar      1 SUB1       -0.041
      9 C7          7.4880   10.0900    5.6350 C.ar      1 SUB1       -0.064
     10 C8          6.0260   10.1620    5.4880 C.ar      1 SUB1       -0.052
     11 C9          5.4050   10.0290    4.1800 C.ar      1 SUB1        0.049
     12 S1          8.9840    9.4800    1.7980 S.o2      1 SUB1        0.068
     13 O2          8.6930    8.2590    1.0890 O.2       1 SUB1       -0.151
     14 O3          9.0520   10.6840    1.0040 O.2       1 SUB1       -0.151
     15 N2         10.6270    9.1530    2.4630 N.am      1 SUB1       -0.230
     16 C10        11.5000   10.1780    3.1110 C.3       1 SUB1        0.034
     17 C11        12.7050   10.4750    2.2230 C.3       1 SUB1        0.004
     18 C12        13.7050    9.3150    2.2280 C.3       1 SUB1       -0.032
     19 N3         13.1750    8.1110    1.5490 N.4       1 SUB1        0.228
     20 C13        12.4060    7.2950    2.5170 C.3       1 SUB1       -0.016
     21 C14        10.9790    7.7520    2.8260 C.3       1 SUB1        0.069
     22 H           2.4232    9.9097    2.5904 H         1 SUB1        0.249
     23 H           3.6763    9.6188    0.5485 H         1 SUB1        0.114
     24 H           6.2349    9.5540    0.7155 H         1 SUB1        0.029
     25 H           9.4216    9.8226    4.6138 H         1 SUB1        0.064
     26 H           7.9321   10.1930    6.6185 H         1 SUB1        0.055
     27 H           5.4056   10.3157    6.3635 H         1 SUB1        0.064
     28 H          11.8486    9.7978    4.0825 H         1 SUB1        0.048
     29 H          10.9240   11.1025    3.2643 H         1 SUB1        0.048
     30 H          13.2069   11.3812    2.5928 H         1 SUB1        0.033
     31 H          12.3574   10.6428    1.1930 H         1 SUB1        0.033
     32 H          13.9419    9.0571    3.2708 H         1 SUB1        0.081
     33 H          14.6219    9.6366    1.7124 H         1 SUB1        0.081
     34 H          13.9410    7.5664    1.1846 H         1 SUB1        0.201
     35 H          12.5715    8.3908    0.7917 H         1 SUB1        0.201
     36 H          12.9653    7.2878    3.4642 H         1 SUB1        0.083
     37 H          12.3483    6.2718    2.1175 H         1 SUB1        0.083
     38 H          10.2919    7.0856    2.2840 H         1 SUB1        0.053
     39 H          10.8211    7.6395    3.9088 H         1 SUB1        0.053
@<TRIPOS>BOND
     1    1    2 2  
     2    2    3 am 
     3    2   11 1  
     4    3    4 am 
     5    4    5 2  
     6    5    6 1  
     7    6    7 ar 
     8    6   11 ar 
     9    7    8 ar 
    10    7   12 1  
    11    8    9 ar 
    12    9   10 ar 
    13   10   11 ar 
    14   12   13 2  
    15   12   14 2  
    16   12   15 1  
    17   15   16 1  
    18   15   21 1  
    19   16   17 1  
    20   17   18 1  
    21   18   19 1  
    22   19   20 1  
    23   20   21 1  
    24    3   22 1  
    25    4   23 1  
    26    5   24 1  
    27    8   25 1  
    28    9   26 1  
    29   10   27 1  
    30   16   28 1  
    31   16   29 1  
    32   17   30 1  
    33   17   31 1  
    34   18   32 1  
    35   18   33 1  
    36   19   34 1  
    37   19   35 1  
    38   20   36 1  
    39   20   37 1  
    40   21   38 1  
    41   21   39 1  
@<TRIPOS>SUBSTRUCTURE
     1 SUB1        1 GROUP

