### 
### Created by X-TOOL on Tue Oct 25 01:32:57 2005
### 

@<TRIPOS>MOLECULE
1ew8_ligand
   10     9     1     0     0
SMALL
GAST_HUCK


@<TRIPOS>ATOM
      1 P          74.0080   39.2080   42.7000 P.3       1 SUB1        0.076
      2 O1P        74.5960   40.5810   43.0350 O.co2     1 SUB1       -0.540
      3 O2P        72.7710   39.0640   43.5800 O.co2     1 SUB1       -0.540
      4 O3P        73.6850   39.1140   41.2760 O.co2     1 SUB1       -0.540
      5 C1P        75.2080   37.9270   43.2380 C.3       1 SUB1        0.032
      6 C1         74.8340   37.7000   44.7350 C.2       1 SUB1        0.034
      7 O1         74.1090   38.6240   45.1830 O.co2     1 SUB1       -0.566
      8 O2         74.9690   36.5800   45.2080 O.co2     1 SUB1       -0.566
      9 H51        76.2423   38.2884   43.1397 H         1 SUB1        0.055
     10 H52        75.0859   37.0018   42.6557 H         1 SUB1        0.055
@<TRIPOS>BOND
     1    1    2 2  
     2    1    3 2  
     3    1    4 2  
     4    1    5 1  
     5    5    6 1  
     6    6    7 2  
     7    6    8 2  
     8    5    9 1  
     9    5   10 1  
@<TRIPOS>SUBSTRUCTURE
     1 SUB1        1 GROUP

