1ew8_ligand
  -I-interpret- 

 10  9  0  0  0  0  0  0  0  0999 V2000
   74.0080   39.2080   42.7000 P   0  0  0  0  0
   74.5960   40.5810   43.0350 O   0  5  0  0  0
   72.7710   39.0640   43.5800 O   0  5  0  0  0
   73.6850   39.1140   41.2760 O   0  0  0  0  0
   75.2080   37.9270   43.2380 C   0  0  0  0  0
   74.8340   37.7000   44.7350 C   0  0  0  0  0
   74.1090   38.6240   45.1830 O   0  5  0  0  0
   74.9690   36.5800   45.2080 O   0  0  0  0  0
   76.2423   38.2884   43.1397 H   0  0  0  0  0
   75.0859   37.0018   42.6557 H   0  0  0  0  0
  1  2  1  0  0  0
  1  3  1  0  0  0
  1  4  2  0  0  0
  1  5  1  0  0  0
  5  6  1  0  0  0
  6  7  1  0  0  0
  6  8  2  0  0  0
  5  9  1  0  0  0
  5 10  1  0  0  0
M  END
$$$$
