2hu6_ligand
  -I-interpret- 

 49 52  0  0  0  0  0  0  0  0999 V2000
    0.5330   -5.8410    5.5950 O   0  0  0  0  0
    1.5110   -6.3100    5.0200 C   0  0  0  0  0
    1.3270   -7.1570    3.7870 C   0  0  0  0  0
    2.5770   -7.5640    3.2180 O   0  0  0  0  0
    0.6860   -6.4020    2.6370 C   0  0  0  0  0
    0.0110   -7.4110    1.7120 C   0  0  0  0  0
    1.0300   -8.3930    1.2810 N   0  0  0  0  0
    0.8530   -9.7200    1.2870 C   0  0  0  0  0
    1.3590  -10.4160    0.4140 O   0  0  0  0  0
    0.1180  -10.2950    2.2360 N   0  0  0  0  0
   -0.1440  -11.6660    2.1790 O   0  0  0  0  0
    2.3170   -7.8590    0.8330 C   0  0  0  0  0
    1.7960   -5.8640    1.9350 O   0  0  0  0  0
    2.7420   -6.9180    1.9470 C   0  0  0  0  0
    2.7700   -6.1330    5.4250 N   0  0  0  0  0
    3.1510   -5.3630    6.6000 C   0  0  0  0  0
    4.3560   -6.0030    7.2710 C   0  0  0  0  0
    4.3010   -6.4440    8.5970 C   0  0  0  0  0
    5.4250   -7.0210    9.1910 C   0  0  0  0  0
    6.6190   -7.1670    8.4750 C   0  0  0  0  0
    6.6680   -6.7290    7.1510 C   0  0  0  0  0
    5.5480   -6.1440    6.5620 C   0  0  0  0  0
    7.8190   -7.8030    9.1070 C   0  0  0  0  0
    9.1190   -7.4480    8.7320 C   0  0  0  0  0
   10.2200   -8.0620    9.3320 C   0  0  0  0  0
    7.6380   -8.7880   10.0810 C   0  0  0  0  0
    8.7380   -9.3990   10.6870 C   0  0  0  0  0
   10.0310   -9.0370   10.3120 C   0  0  0  0  0
    0.7159   -7.9848    4.1467 H   0  0  0  0  0
   -0.0409   -5.6586    2.9641 H   0  0  0  0  0
   -0.4108   -6.9023    0.8451 H   0  0  0  0  0
   -0.8001   -7.9167    2.2358 H   0  0  0  0  0
   -0.2534   -9.7355    3.0037 H   0  0  0  0  0
    0.6847  -12.1502    2.2000 H   0  0  0  0  0
    2.2375   -7.3487   -0.1269 H   0  0  0  0  0
    3.0500   -8.6469    0.6598 H   0  0  0  0  0
    3.7756   -6.6015    1.8073 H   0  0  0  0  0
    3.5132   -6.5650    4.8759 H   0  0  0  0  0
    2.3175   -5.3430    7.3021 H   0  0  0  0  0
    3.4060   -4.3476    6.2968 H   0  0  0  0  0
    3.3787   -6.3370    9.1679 H   0  0  0  0  0
    5.3722   -7.3620   10.2249 H   0  0  0  0  0
    7.5860   -6.8448    6.5748 H   0  0  0  0  0
    5.6052   -5.7917    5.5321 H   0  0  0  0  0
    9.2734   -6.6874    7.9667 H   0  0  0  0  0
   11.2296   -7.7790    9.0341 H   0  0  0  0  0
    6.6292   -9.0823   10.3706 H   0  0  0  0  0
    8.5855  -10.1590   11.4533 H   0  0  0  0  0
   10.8909   -9.5138   10.7825 H   0  0  0  0  0
  1  2  2  0  0  0
  2  3  1  0  0  0
  2 15  1  0  0  0
  3  4  1  0  0  0
  3  5  1  0  0  0
  4 14  1  0  0  0
  5  6  1  0  0  0
  5 13  1  0  0  0
  6  7  1  0  0  0
  7  8  1  0  0  0
  7 12  1  0  0  0
  8  9  2  0  0  0
  8 10  1  0  0  0
 10 11  1  0  0  0
 12 14  1  0  0  0
 13 14  1  0  0  0
 15 16  1  0  0  0
 16 17  1  0  0  0
 17 18  4  0  0  0
 17 22  4  0  0  0
 18 19  4  0  0  0
 19 20  4  0  0  0
 20 21  4  0  0  0
 20 23  1  0  0  0
 21 22  4  0  0  0
 23 24  4  0  0  0
 23 26  4  0  0  0
 24 25  4  0  0  0
 25 28  4  0  0  0
 26 27  4  0  0  0
 27 28  4  0  0  0
  3 29  1  0  0  0
  5 30  1  0  0  0
  6 31  1  0  0  0
  6 32  1  0  0  0
 10 33  1  0  0  0
 11 34  1  0  0  0
 12 35  1  0  0  0
 12 36  1  0  0  0
 14 37  1  0  0  0
 15 38  1  0  0  0
 16 39  1  0  0  0
 16 40  1  0  0  0
 18 41  1  0  0  0
 19 42  1  0  0  0
 21 43  1  0  0  0
 22 44  1  0  0  0
 24 45  1  0  0  0
 25 46  1  0  0  0
 26 47  1  0  0  0
 27 48  1  0  0  0
 28 49  1  0  0  0
M  END
$$$$
