### 
### Created by X-TOOL on Sun Jun  3 11:29:13 2007
### 

@<TRIPOS>MOLECULE
2hu6_ligand
   49    52     1     0     0
SMALL
GAST_HUCK


@<TRIPOS>ATOM
      1 O6          0.5330   -5.8410    5.5950 O.2       1 SUB1       -0.394
      2 C9          1.5110   -6.3100    5.0200 C.2       1 SUB1        0.210
      3 C6          1.3270   -7.1570    3.7870 C.3       1 SUB1        0.178
      4 O2          2.5770   -7.5640    3.2180 O.3       1 SUB1       -0.323
      5 C5          0.6860   -6.4020    2.6370 C.3       1 SUB1        0.125
      6 C7          0.0110   -7.4110    1.7120 C.3       1 SUB1        0.065
      7 N1          1.0300   -8.3930    1.2810 N.am      1 SUB1       -0.251
      8 C21         0.8530   -9.7200    1.2870 C.2       1 SUB1        0.284
      9 O1          1.3590  -10.4160    0.4140 O.2       1 SUB1       -0.401
     10 N2          0.1180  -10.2950    2.2360 N.am      1 SUB1       -0.150
     11 O4         -0.1440  -11.6660    2.1790 O.3       1 SUB1       -0.272
     12 C3          2.3170   -7.8590    0.8330 C.3       1 SUB1        0.085
     13 O3          1.7960   -5.8640    1.9350 O.3       1 SUB1       -0.339
     14 C1          2.7420   -6.9180    1.9470 C.3       1 SUB1        0.183
     15 N3          2.7700   -6.1330    5.4250 N.am      1 SUB1       -0.273
     16 C12         3.1510   -5.3630    6.6000 C.3       1 SUB1        0.065
     17 C13         4.3560   -6.0030    7.2710 C.ar      1 SUB1       -0.020
     18 C15         4.3010   -6.4440    8.5970 C.ar      1 SUB1       -0.057
     19 C19         5.4250   -7.0210    9.1910 C.ar      1 SUB1       -0.060
     20 C17         6.6190   -7.1670    8.4750 C.ar      1 SUB1       -0.024
     21 C16         6.6680   -6.7290    7.1510 C.ar      1 SUB1       -0.060
     22 C14         5.5480   -6.1440    6.5620 C.ar      1 SUB1       -0.057
     23 C18         7.8190   -7.8030    9.1070 C.ar      1 SUB1       -0.022
     24 C11         9.1190   -7.4480    8.7320 C.ar      1 SUB1       -0.056
     25 C2         10.2200   -8.0620    9.3320 C.ar      1 SUB1       -0.062
     26 C20         7.6380   -8.7880   10.0810 C.ar      1 SUB1       -0.056
     27 C10         8.7380   -9.3990   10.6870 C.ar      1 SUB1       -0.062
     28 C4         10.0310   -9.0370   10.3120 C.ar      1 SUB1       -0.063
     29 H           0.7159   -7.9848    4.1467 H         1 SUB1        0.087
     30 H          -0.0409   -5.6586    2.9641 H         1 SUB1        0.067
     31 H          -0.4108   -6.9023    0.8451 H         1 SUB1        0.055
     32 H          -0.8001   -7.9167    2.2358 H         1 SUB1        0.055
     33 H          -0.2534   -9.7355    3.0037 H         1 SUB1        0.221
     34 H           0.6847  -12.1502    2.2000 H         1 SUB1        0.249
     35 H           2.2375   -7.3487   -0.1269 H         1 SUB1        0.057
     36 H           3.0500   -8.6469    0.6598 H         1 SUB1        0.057
     37 H           3.7756   -6.6015    1.8073 H         1 SUB1        0.093
     38 H           3.5132   -6.5650    4.8759 H         1 SUB1        0.188
     39 H           2.3175   -5.3430    7.3021 H         1 SUB1        0.069
     40 H           3.4060   -4.3476    6.2968 H         1 SUB1        0.069
     41 H           3.3787   -6.3370    9.1679 H         1 SUB1        0.056
     42 H           5.3722   -7.3620   10.2249 H         1 SUB1        0.061
     43 H           7.5860   -6.8448    6.5748 H         1 SUB1        0.061
     44 H           5.6052   -5.7917    5.5321 H         1 SUB1        0.056
     45 H           9.2734   -6.6874    7.9667 H         1 SUB1        0.062
     46 H          11.2296   -7.7790    9.0341 H         1 SUB1        0.062
     47 H           6.6292   -9.0823   10.3706 H         1 SUB1        0.062
     48 H           8.5855  -10.1590   11.4533 H         1 SUB1        0.062
     49 H          10.8909   -9.5138   10.7825 H         1 SUB1        0.061
@<TRIPOS>BOND
     1    1    2 2  
     2    2    3 1  
     3    2   15 am 
     4    3    4 1  
     5    3    5 1  
     6    4   14 1  
     7    5    6 1  
     8    5   13 1  
     9    6    7 1  
    10    7    8 am 
    11    7   12 1  
    12    8    9 2  
    13    8   10 am 
    14   10   11 1  
    15   12   14 1  
    16   13   14 1  
    17   15   16 1  
    18   16   17 1  
    19   17   18 ar 
    20   17   22 ar 
    21   18   19 ar 
    22   19   20 ar 
    23   20   21 ar 
    24   20   23 1  
    25   21   22 ar 
    26   23   24 ar 
    27   23   26 ar 
    28   24   25 ar 
    29   25   28 ar 
    30   26   27 ar 
    31   27   28 ar 
    32    3   29 1  
    33    5   30 1  
    34    6   31 1  
    35    6   32 1  
    36   10   33 1  
    37   11   34 1  
    38   12   35 1  
    39   12   36 1  
    40   14   37 1  
    41   15   38 1  
    42   16   39 1  
    43   16   40 1  
    44   18   41 1  
    45   19   42 1  
    46   21   43 1  
    47   22   44 1  
    48   24   45 1  
    49   25   46 1  
    50   26   47 1  
    51   27   48 1  
    52   28   49 1  
@<TRIPOS>SUBSTRUCTURE
     1 SUB1        1 GROUP

