### 
### Created by X-TOOL on Tue Oct 25 01:25:34 2005
### 

@<TRIPOS>MOLECULE
1ppi_ligand
  109   113     1     0     0
SMALL
GAST_HUCK


@<TRIPOS>ATOM
      1 C1         -6.4470   42.0170   20.3790 C.3       1 SUB1        0.188
      2 C2         -7.2950   40.8830   19.8840 C.3       1 SUB1        0.134
      3 C3         -8.3870   41.3930   19.0000 C.3       1 SUB1        0.114
      4 C4         -9.1730   42.4470   19.7670 C.3       1 SUB1        0.112
      5 C5         -8.2210   43.5230   20.3360 C.3       1 SUB1        0.113
      6 C6         -8.9970   44.4170   21.2840 C.3       1 SUB1        0.073
      7 O2         -6.5080   39.9780   19.1370 O.3       1 SUB1       -0.384
      8 O3         -9.2470   40.3370   18.5590 O.3       1 SUB1       -0.386
      9 O4        -10.0910   43.0080   18.8680 O.3       1 SUB1       -0.387
     10 O5         -7.1860   42.9170   21.1020 O.3       1 SUB1       -0.340
     11 O6         -8.6980   45.7520   20.9370 O.3       1 SUB1       -0.392
     12 C1         -1.6780   43.2060   19.0060 C.3       1 SUB1        0.190
     13 C2         -2.3270   41.9370   18.4130 C.3       1 SUB1        0.134
     14 C3         -3.8250   42.0960   18.1490 C.3       1 SUB1        0.114
     15 C4         -4.4510   42.5740   19.4330 C.3       1 SUB1        0.118
     16 C5         -3.8220   43.9250   19.7940 C.3       1 SUB1        0.113
     17 C6         -4.4500   44.6300   20.9810 C.3       1 SUB1        0.073
     18 O2         -1.6970   41.6770   17.1770 O.3       1 SUB1       -0.384
     19 O3         -4.3490   40.8450   17.7320 O.3       1 SUB1       -0.386
     20 O4         -5.8350   42.6370   19.2750 O.3       1 SUB1       -0.340
     21 O5         -2.4280   43.7140   20.0910 O.3       1 SUB1       -0.340
     22 O6         -4.4360   43.8180   22.1390 O.3       1 SUB1       -0.392
     23 C1         -1.8510   45.3880   11.6290 C.3       1 SUB1        0.189
     24 C2         -1.2850   46.7440   12.0960 C.3       1 SUB1        0.137
     25 C3          0.0420   46.6070   12.8510 C.3       1 SUB1        0.130
     26 C4         -0.1160   45.5480   13.9590 C.3       1 SUB1        0.034
     27 C5         -0.5370   44.2380   13.3000 C.3       1 SUB1        0.104
     28 C6         -0.6720   43.1510   14.3080 C.3       1 SUB1       -0.033
     29 O2         -1.0150   47.6070   10.9840 O.3       1 SUB1       -0.384
     30 O3          0.3800   47.8830   13.3550 O.3       1 SUB1       -0.383
     31 O5         -1.8110   44.4050   12.6750 O.3       1 SUB1       -0.340
     32 N4          1.1260   45.3300   14.7210 N.4       1 SUB1        0.243
     33 C1H         1.2800   46.1780   15.9140 C.3       1 SUB1        0.014
     34 C2H         1.8920   45.3700   17.0860 C.3       1 SUB1        0.130
     35 C3H         0.9000   44.2990   17.5130 C.3       1 SUB1        0.122
     36 C4H        -0.3440   44.9730   18.1520 C.3       1 SUB1        0.118
     37 C5H        -0.6410   46.3460   17.5390 C.2       1 SUB1       -0.020
     38 C6H        -0.0080   46.8420   16.4430 C.2       1 SUB1       -0.054
     39 C7H        -1.6590   47.2330   18.2330 C.3       1 SUB1        0.072
     40 O2H         3.1140   44.7660   16.7790 O.3       1 SUB1       -0.382
     41 O3H         1.5420   43.4180   18.4160 O.3       1 SUB1       -0.384
     42 O4H        -1.5160   44.1700   17.9860 O.3       1 SUB1       -0.331
     43 O7H        -0.9520   47.9890   19.2210 O.3       1 SUB1       -0.384
     44 C1         -1.8550   43.4380    6.9130 C.3       1 SUB1        0.185
     45 C2         -1.7700   44.9480    6.9870 C.3       1 SUB1        0.134
     46 C3         -1.0550   45.2740    8.2450 C.3       1 SUB1        0.114
     47 C4         -1.8850   44.7240    9.3540 C.3       1 SUB1        0.118
     48 C5         -2.1290   43.2010    9.2180 C.3       1 SUB1        0.113
     49 C6         -3.1180   42.6780   10.2650 C.3       1 SUB1        0.073
     50 O1         -2.3840   43.0410    5.6870 O.3       1 SUB1       -0.365
     51 O2         -1.0960   45.4900    5.8630 O.3       1 SUB1       -0.384
     52 O3         -0.8810   46.6760    8.3050 O.3       1 SUB1       -0.386
     53 O4         -1.1020   44.9690   10.4940 O.3       1 SUB1       -0.340
     54 O5         -2.6850   42.9630    7.9420 O.3       1 SUB1       -0.341
     55 O6         -4.4240   43.2090   10.0430 O.3       1 SUB1       -0.392
     56 H11        -5.6634   41.6102   21.0351 H         1 SUB1        0.094
     57 H21        -7.7359   40.3613   20.7462 H         1 SUB1        0.067
     58 H31        -7.9342   41.8613   18.1136 H         1 SUB1        0.065
     59 H41        -9.7142   41.9739   20.5996 H         1 SUB1        0.065
     60 H51        -7.7908   44.1130   19.5133 H         1 SUB1        0.065
     61 H61        -8.6920   44.2201   22.3224 H         1 SUB1        0.058
     62 H62       -10.0762   44.2326   21.1776 H         1 SUB1        0.058
     63 H71        -6.1268   40.4304   18.3937 H         1 SUB1        0.210
     64 H81        -9.9270   40.6960   18.0013 H         1 SUB1        0.210
     65 H91       -10.6692   42.3283   18.5421 H         1 SUB1        0.210
     66 H111       -9.1698   46.3412   21.5138 H         1 SUB1        0.209
     67 H121       -0.6810   42.9369   19.3847 H         1 SUB1        0.094
     68 H131       -2.1709   41.0954   19.1039 H         1 SUB1        0.067
     69 H141       -3.9947   42.8410   17.3577 H         1 SUB1        0.065
     70 H151       -4.2269   41.8574   20.2369 H         1 SUB1        0.065
     71 H161       -3.9127   44.5853   18.9189 H         1 SUB1        0.065
     72 H171       -5.4920   44.8825   20.7353 H         1 SUB1        0.058
     73 H172       -3.8876   45.5529   21.1860 H         1 SUB1        0.058
     74 H181       -1.8238   42.4180   16.5961 H         1 SUB1        0.210
     75 H191       -5.2801   40.9327   17.5651 H         1 SUB1        0.210
     76 H221       -4.9246   43.0207   21.9713 H         1 SUB1        0.209
     77 H231       -2.9006   45.5265   11.3306 H         1 SUB1        0.094
     78 H241       -2.0285   47.2161   12.7550 H         1 SUB1        0.067
     79 H251        0.8302   46.2765   12.1586 H         1 SUB1        0.068
     80 H261       -0.9008   45.8779   14.6556 H         1 SUB1        0.090
     81 H271        0.2143   43.9533   12.5487 H         1 SUB1        0.065
     82 H281       -0.9757   42.2208   13.8056 H         1 SUB1        0.026
     83 H282       -1.4333   43.4320   15.0506 H         1 SUB1        0.026
     84 H283        0.2932   42.9969   14.8126 H         1 SUB1        0.026
     85 H291       -0.3788   47.1945   10.4116 H         1 SUB1        0.210
     86 H301        0.4706   48.4936   12.6329 H         1 SUB1        0.210
     87 H321        1.9052   45.5093   14.1072 H         1 SUB1        0.203
     88 H322        1.1463   44.3667   15.0172 H         1 SUB1        0.203
     89 H331        1.9785   46.9832   15.6427 H         1 SUB1        0.095
     90 H341        2.0566   46.0606   17.9262 H         1 SUB1        0.069
     91 H351        0.5774   43.7289   16.6294 H         1 SUB1        0.067
     92 H361       -0.1470   45.1001   19.2267 H         1 SUB1        0.077
     93 H381       -0.4135   47.7153   15.9342 H         1 SUB1        0.030
     94 H391       -2.4331   46.6158   18.7124 H         1 SUB1        0.071
     95 H392       -2.1289   47.9100   17.5044 H         1 SUB1        0.071
     96 H401        3.4302   44.2900   17.5379 H         1 SUB1        0.210
     97 H411        2.2877   43.0148   17.9871 H         1 SUB1        0.210
     98 H431       -1.5602   48.5582   19.6777 H         1 SUB1        0.213
     99 H441       -0.8470   43.0132    7.0290 H         1 SUB1        0.094
    100 H451       -2.7855   45.3694    7.0222 H         1 SUB1        0.067
    101 H461       -0.0663   44.7920    8.2591 H         1 SUB1        0.065
    102 H471       -2.8512   45.2465    9.4116 H         1 SUB1        0.065
    103 H481       -1.1724   42.6679    9.3216 H         1 SUB1        0.065
    104 H491       -2.7736   42.9762   11.2662 H         1 SUB1        0.058
    105 H492       -3.1604   41.5805   10.2036 H         1 SUB1        0.058
    106 H501       -1.8278   43.3587    4.9856 H         1 SUB1        0.213
    107 H511       -1.0610   46.4360    5.9420 H         1 SUB1        0.210
    108 H521       -0.4237   46.9032    9.1061 H         1 SUB1        0.210
    109 H551       -4.7271   42.9510    9.1805 H         1 SUB1        0.209
@<TRIPOS>BOND
     1    1   10 1  
     2    1    2 1  
     3    2    7 1  
     4    2    3 1  
     5    3    8 1  
     6    3    4 1  
     7    4    9 1  
     8    5    4 1  
     9   10    5 1  
    10    5    6 1  
    11    6   11 1  
    12   12   21 1  
    13   12   13 1  
    14   13   18 1  
    15   13   14 1  
    16   14   19 1  
    17   14   15 1  
    18   15   20 1  
    19   16   15 1  
    20   21   16 1  
    21   16   17 1  
    22   17   22 1  
    23   23   31 1  
    24   23   24 1  
    25   24   29 1  
    26   24   25 1  
    27   25   30 1  
    28   25   26 1  
    29   26   32 1  
    30   27   26 1  
    31   31   27 1  
    32   27   28 1  
    33   32   33 1  
    34   33   38 1  
    35   33   34 1  
    36   34   40 1  
    37   34   35 1  
    38   35   41 1  
    39   35   36 1  
    40   36   42 1  
    41   37   36 1  
    42   37   39 1  
    43   38   37 2  
    44   39   43 1  
    45   54   44 1  
    46   44   50 1  
    47   45   44 1  
    48   45   51 1  
    49   46   45 1  
    50   46   52 1  
    51   47   46 1  
    52   53   47 1  
    53   47   48 1  
    54   48   54 1  
    55   48   49 1  
    56   49   55 1  
    57   20    1 1  
    58   42   12 1  
    59   53   23 1  
    60    1   56 1  
    61    2   57 1  
    62    3   58 1  
    63    4   59 1  
    64    5   60 1  
    65    6   61 1  
    66    6   62 1  
    67    7   63 1  
    68    8   64 1  
    69    9   65 1  
    70   11   66 1  
    71   12   67 1  
    72   13   68 1  
    73   14   69 1  
    74   15   70 1  
    75   16   71 1  
    76   17   72 1  
    77   17   73 1  
    78   18   74 1  
    79   19   75 1  
    80   22   76 1  
    81   23   77 1  
    82   24   78 1  
    83   25   79 1  
    84   26   80 1  
    85   27   81 1  
    86   28   82 1  
    87   28   83 1  
    88   28   84 1  
    89   29   85 1  
    90   30   86 1  
    91   32   87 1  
    92   32   88 1  
    93   33   89 1  
    94   34   90 1  
    95   35   91 1  
    96   36   92 1  
    97   38   93 1  
    98   39   94 1  
    99   39   95 1  
   100   40   96 1  
   101   41   97 1  
   102   43   98 1  
   103   44   99 1  
   104   45  100 1  
   105   46  101 1  
   106   47  102 1  
   107   48  103 1  
   108   49  104 1  
   109   49  105 1  
   110   50  106 1  
   111   51  107 1  
   112   52  108 1  
   113   55  109 1  
@<TRIPOS>SUBSTRUCTURE
     1 SUB1        1 GROUP

