### 
### Created by X-TOOL on Sun Jun  3 11:20:05 2007
### 

@<TRIPOS>MOLECULE
2d1o_ligand
   77    77     1     0     0
SMALL
GAST_HUCK


@<TRIPOS>ATOM
      1 C1         21.9090    1.3290   12.8340 C.ar      1 SUB1       -0.075
      2 C2         23.0090    1.6730   13.6770 C.ar      1 SUB1       -0.067
      3 C3         23.5620    2.9960   13.6550 C.ar      1 SUB1       -0.038
      4 C4         22.9830    3.9950   12.7490 C.ar      1 SUB1       -0.005
      5 C5         21.8750    3.6310   11.9050 C.ar      1 SUB1       -0.064
      6 C6         21.3400    2.2970   11.9460 C.ar      1 SUB1       -0.075
      7 C7         24.7240    3.3270   14.5570 C.3       1 SUB1       -0.022
      8 C8         26.0760    2.9430   13.9320 C.3       1 SUB1       -0.044
      9 C9         27.2640    3.4260   14.7650 C.3       1 SUB1       -0.051
     10 C10        27.9570    4.6480   14.1550 C.3       1 SUB1       -0.053
     11 C11        29.1400    5.1500   14.9870 C.3       1 SUB1       -0.053
     12 C12        28.7270    6.2300   15.9910 C.3       1 SUB1       -0.053
     13 C13        29.7800    7.3180   16.1690 C.3       1 SUB1       -0.051
     14 C14        30.6220    7.1250   17.4350 C.3       1 SUB1       -0.036
     15 C15        31.6880    8.2030   17.6360 C.3       1 SUB1        0.037
     16 C16        32.8660    7.9940   16.6740 C.2       1 SUB1        0.178
     17 N17        32.9050    8.9620   15.7320 N.am      1 SUB1       -0.266
     18 C18        33.9360    8.9930   14.7120 C.3       1 SUB1        0.132
     19 O19        33.6470    7.0470   16.7980 O.2       1 SUB1       -0.397
     20 C20        34.3010   10.4590   14.4670 C.3       1 SUB1       -0.012
     21 C21        33.4250    8.3210   13.4250 C.2       1 SUB1        0.224
     22 N22        34.2320    7.3570   12.9590 N.am      1 SUB1       -0.162
     23 C23        35.7530   10.7930   14.7920 C.3       1 SUB1       -0.044
     24 C24        36.0630   12.2710   14.5560 C.3       1 SUB1       -0.012
     25 C25        37.1470   12.7980   15.4980 C.3       1 SUB1       -0.035
     26 N26        37.4400   14.2090   15.2790 N.4       1 SUB1        0.219
     27 C27        23.4780    5.4270   12.6430 C.3       1 SUB1        0.094
     28 N28        22.9060    6.2660   13.7040 N.pl3     1 SUB1       -0.262
     29 C29        21.7550    6.9920   13.4820 C.cat     1 SUB1        0.290
     30 N30        20.9490    7.2680   14.5010 N.pl3     1 SUB1       -0.285
     31 N31        21.4300    7.4220   12.2540 N.pl3     1 SUB1       -0.285
     32 O32        33.8780    6.6670   11.7960 O.3       1 SUB1       -0.272
     33 O33        32.3660    8.6570   12.9050 O.2       1 SUB1       -0.394
     34 H          21.4987    0.3197   12.8670 H         1 SUB1        0.054
     35 H          23.4327    0.9223   14.3441 H         1 SUB1        0.054
     36 H          21.4398    4.3698   11.2320 H         1 SUB1        0.054
     37 H          20.5036    2.0236   11.3028 H         1 SUB1        0.054
     38 H          24.6061    2.7618   15.4815 H         1 SUB1        0.041
     39 H          24.7238    4.4036   14.7274 H         1 SUB1        0.041
     40 H          26.1391    3.4141   12.9511 H         1 SUB1        0.029
     41 H          26.1241    1.8555   13.8763 H         1 SUB1        0.029
     42 H          27.9923    2.6162   14.8096 H         1 SUB1        0.027
     43 H          26.8893    3.7103   15.7483 H         1 SUB1        0.027
     44 H          27.2234    5.4527   14.1056 H         1 SUB1        0.026
     45 H          28.3415    4.3556   13.1779 H         1 SUB1        0.026
     46 H          29.8728    5.5833   14.3063 H         1 SUB1        0.026
     47 H          29.5435    4.3054   15.5455 H         1 SUB1        0.026
     48 H          28.5852    5.7461   16.9573 H         1 SUB1        0.026
     49 H          27.8220    6.7048   15.6121 H         1 SUB1        0.026
     50 H          29.2627    8.2737   16.2537 H         1 SUB1        0.027
     51 H          30.4513    7.2775   15.3112 H         1 SUB1        0.027
     52 H          31.1387    6.1700   17.3398 H         1 SUB1        0.029
     53 H          29.9443    7.1744   18.2873 H         1 SUB1        0.029
     54 H          32.0569    8.1448   18.6600 H         1 SUB1        0.050
     55 H          31.2425    9.1779   17.4383 H         1 SUB1        0.050
     56 H          32.1907    9.6901   15.7383 H         1 SUB1        0.188
     57 H          34.8203    8.4433   15.0343 H         1 SUB1        0.080
     58 H          33.6735   11.0644   15.1211 H         1 SUB1        0.031
     59 H          34.1506   10.6590   13.4061 H         1 SUB1        0.031
     60 H          35.0970    7.1290   13.4490 H         1 SUB1        0.222
     61 H          36.3947   10.2003   14.1400 H         1 SUB1        0.027
     62 H          35.9281   10.5704   15.8446 H         1 SUB1        0.027
     63 H          35.1515   12.8399   14.7394 H         1 SUB1        0.032
     64 H          36.4232   12.3806   13.5331 H         1 SUB1        0.032
     65 H          38.0595   12.2322   15.3102 H         1 SUB1        0.081
     66 H          36.7878   12.6842   16.5208 H         1 SUB1        0.081
     67 H          38.1660   14.5092   15.9296 H         1 SUB1        0.199
     68 H          37.7636   14.3431   14.3210 H         1 SUB1        0.199
     69 H          36.5947   14.7585   15.4337 H         1 SUB1        0.199
     70 H          23.1726    5.8303   11.6775 H         1 SUB1        0.084
     71 H          24.5632    5.4286   12.7449 H         1 SUB1        0.084
     72 H          23.3646    6.3121   14.6139 H         1 SUB1        0.266
     73 H          21.1835    6.9434   15.4391 H         1 SUB1        0.262
     74 H          20.0956    7.8045   14.3454 H         1 SUB1        0.262
     75 H          22.0390    7.2133   11.4628 H         1 SUB1        0.262
     76 H          20.5738    7.9577   12.1112 H         1 SUB1        0.262
     77 H          34.5526    6.0143   11.5946 H         1 SUB1        0.249
@<TRIPOS>BOND
     1    1    2 ar 
     2    1    6 ar 
     3    2    3 ar 
     4    3    4 ar 
     5    3    7 1  
     6    4    5 ar 
     7    4   27 1  
     8    5    6 ar 
     9    7    8 1  
    10    8    9 1  
    11    9   10 1  
    12   10   11 1  
    13   11   12 1  
    14   12   13 1  
    15   13   14 1  
    16   14   15 1  
    17   15   16 1  
    18   16   17 am 
    19   16   19 2  
    20   17   18 1  
    21   18   20 1  
    22   18   21 1  
    23   20   23 1  
    24   21   22 am 
    25   21   33 2  
    26   22   32 1  
    27   23   24 1  
    28   24   25 1  
    29   25   26 1  
    30   27   28 1  
    31   28   29 1  
    32   29   30 1  
    33   29   31 1  
    34    1   34 1  
    35    2   35 1  
    36    5   36 1  
    37    6   37 1  
    38    7   38 1  
    39    7   39 1  
    40    8   40 1  
    41    8   41 1  
    42    9   42 1  
    43    9   43 1  
    44   10   44 1  
    45   10   45 1  
    46   11   46 1  
    47   11   47 1  
    48   12   48 1  
    49   12   49 1  
    50   13   50 1  
    51   13   51 1  
    52   14   52 1  
    53   14   53 1  
    54   15   54 1  
    55   15   55 1  
    56   17   56 1  
    57   18   57 1  
    58   20   58 1  
    59   20   59 1  
    60   22   60 1  
    61   23   61 1  
    62   23   62 1  
    63   24   63 1  
    64   24   64 1  
    65   25   65 1  
    66   25   66 1  
    67   26   67 1  
    68   26   68 1  
    69   26   69 1  
    70   27   70 1  
    71   27   71 1  
    72   28   72 1  
    73   30   73 1  
    74   30   74 1  
    75   31   75 1  
    76   31   76 1  
    77   32   77 1  
@<TRIPOS>SUBSTRUCTURE
     1 SUB1        1 GROUP

