2d1o_ligand
  -I-interpret- 

 77 77  0  0  0  0  0  0  0  0999 V2000
   21.9090    1.3290   12.8340 C   0  0  0  0  0
   23.0090    1.6730   13.6770 C   0  0  0  0  0
   23.5620    2.9960   13.6550 C   0  0  0  0  0
   22.9830    3.9950   12.7490 C   0  0  0  0  0
   21.8750    3.6310   11.9050 C   0  0  0  0  0
   21.3400    2.2970   11.9460 C   0  0  0  0  0
   24.7240    3.3270   14.5570 C   0  0  0  0  0
   26.0760    2.9430   13.9320 C   0  0  0  0  0
   27.2640    3.4260   14.7650 C   0  0  0  0  0
   27.9570    4.6480   14.1550 C   0  0  0  0  0
   29.1400    5.1500   14.9870 C   0  0  0  0  0
   28.7270    6.2300   15.9910 C   0  0  0  0  0
   29.7800    7.3180   16.1690 C   0  0  0  0  0
   30.6220    7.1250   17.4350 C   0  0  0  0  0
   31.6880    8.2030   17.6360 C   0  0  0  0  0
   32.8660    7.9940   16.6740 C   0  0  0  0  0
   32.9050    8.9620   15.7320 N   0  0  0  0  0
   33.9360    8.9930   14.7120 C   0  0  0  0  0
   33.6470    7.0470   16.7980 O   0  0  0  0  0
   34.3010   10.4590   14.4670 C   0  0  0  0  0
   33.4250    8.3210   13.4250 C   0  0  0  0  0
   34.2320    7.3570   12.9590 N   0  0  0  0  0
   35.7530   10.7930   14.7920 C   0  0  0  0  0
   36.0630   12.2710   14.5560 C   0  0  0  0  0
   37.1470   12.7980   15.4980 C   0  0  0  0  0
   37.4400   14.2090   15.2790 N   0  3  0  0  0
   23.4780    5.4270   12.6430 C   0  0  0  0  0
   22.9060    6.2660   13.7040 N   0  0  0  0  0
   21.7550    6.9920   13.4820 C   0  3  0  0  0
   20.9490    7.2680   14.5010 N   0  0  0  0  0
   21.4300    7.4220   12.2540 N   0  0  0  0  0
   33.8780    6.6670   11.7960 O   0  0  0  0  0
   32.3660    8.6570   12.9050 O   0  0  0  0  0
   21.4987    0.3197   12.8670 H   0  0  0  0  0
   23.4327    0.9223   14.3441 H   0  0  0  0  0
   21.4398    4.3698   11.2320 H   0  0  0  0  0
   20.5036    2.0236   11.3028 H   0  0  0  0  0
   24.6061    2.7618   15.4815 H   0  0  0  0  0
   24.7238    4.4036   14.7274 H   0  0  0  0  0
   26.1391    3.4141   12.9511 H   0  0  0  0  0
   26.1241    1.8555   13.8763 H   0  0  0  0  0
   27.9923    2.6162   14.8096 H   0  0  0  0  0
   26.8893    3.7103   15.7483 H   0  0  0  0  0
   27.2234    5.4527   14.1056 H   0  0  0  0  0
   28.3415    4.3556   13.1779 H   0  0  0  0  0
   29.8728    5.5833   14.3063 H   0  0  0  0  0
   29.5435    4.3054   15.5455 H   0  0  0  0  0
   28.5852    5.7461   16.9573 H   0  0  0  0  0
   27.8220    6.7048   15.6121 H   0  0  0  0  0
   29.2627    8.2737   16.2537 H   0  0  0  0  0
   30.4513    7.2775   15.3112 H   0  0  0  0  0
   31.1387    6.1700   17.3398 H   0  0  0  0  0
   29.9443    7.1744   18.2873 H   0  0  0  0  0
   32.0569    8.1448   18.6600 H   0  0  0  0  0
   31.2425    9.1779   17.4383 H   0  0  0  0  0
   32.1907    9.6901   15.7383 H   0  0  0  0  0
   34.8203    8.4433   15.0343 H   0  0  0  0  0
   33.6735   11.0644   15.1211 H   0  0  0  0  0
   34.1506   10.6590   13.4061 H   0  0  0  0  0
   35.0970    7.1290   13.4490 H   0  0  0  0  0
   36.3947   10.2003   14.1400 H   0  0  0  0  0
   35.9281   10.5704   15.8446 H   0  0  0  0  0
   35.1515   12.8399   14.7394 H   0  0  0  0  0
   36.4232   12.3806   13.5331 H   0  0  0  0  0
   38.0595   12.2322   15.3102 H   0  0  0  0  0
   36.7878   12.6842   16.5208 H   0  0  0  0  0
   38.1660   14.5092   15.9296 H   0  0  0  0  0
   37.7636   14.3431   14.3210 H   0  0  0  0  0
   36.5947   14.7585   15.4337 H   0  0  0  0  0
   23.1726    5.8303   11.6775 H   0  0  0  0  0
   24.5632    5.4286   12.7449 H   0  0  0  0  0
   23.3646    6.3121   14.6139 H   0  0  0  0  0
   21.1835    6.9434   15.4391 H   0  0  0  0  0
   20.0956    7.8045   14.3454 H   0  0  0  0  0
   22.0390    7.2133   11.4628 H   0  0  0  0  0
   20.5738    7.9577   12.1112 H   0  0  0  0  0
   34.5526    6.0143   11.5946 H   0  0  0  0  0
  1  2  4  0  0  0
  1  6  4  0  0  0
  2  3  4  0  0  0
  3  4  4  0  0  0
  3  7  1  0  0  0
  4  5  4  0  0  0
  4 27  1  0  0  0
  5  6  4  0  0  0
  7  8  1  0  0  0
  8  9  1  0  0  0
  9 10  1  0  0  0
 10 11  1  0  0  0
 11 12  1  0  0  0
 12 13  1  0  0  0
 13 14  1  0  0  0
 14 15  1  0  0  0
 15 16  1  0  0  0
 16 17  1  0  0  0
 16 19  2  0  0  0
 17 18  1  0  0  0
 18 20  1  0  0  0
 18 21  1  0  0  0
 20 23  1  0  0  0
 21 22  1  0  0  0
 21 33  2  0  0  0
 22 32  1  0  0  0
 23 24  1  0  0  0
 24 25  1  0  0  0
 25 26  1  0  0  0
 27 28  1  0  0  0
 28 29  1  0  0  0
 29 30  1  0  0  0
 29 31  1  0  0  0
  1 34  1  0  0  0
  2 35  1  0  0  0
  5 36  1  0  0  0
  6 37  1  0  0  0
  7 38  1  0  0  0
  7 39  1  0  0  0
  8 40  1  0  0  0
  8 41  1  0  0  0
  9 42  1  0  0  0
  9 43  1  0  0  0
 10 44  1  0  0  0
 10 45  1  0  0  0
 11 46  1  0  0  0
 11 47  1  0  0  0
 12 48  1  0  0  0
 12 49  1  0  0  0
 13 50  1  0  0  0
 13 51  1  0  0  0
 14 52  1  0  0  0
 14 53  1  0  0  0
 15 54  1  0  0  0
 15 55  1  0  0  0
 17 56  1  0  0  0
 18 57  1  0  0  0
 20 58  1  0  0  0
 20 59  1  0  0  0
 22 60  1  0  0  0
 23 61  1  0  0  0
 23 62  1  0  0  0
 24 63  1  0  0  0
 24 64  1  0  0  0
 25 65  1  0  0  0
 25 66  1  0  0  0
 26 67  1  0  0  0
 26 68  1  0  0  0
 26 69  1  0  0  0
 27 70  1  0  0  0
 27 71  1  0  0  0
 28 72  1  0  0  0
 30 73  1  0  0  0
 30 74  1  0  0  0
 31 75  1  0  0  0
 31 76  1  0  0  0
 32 77  1  0  0  0
M  END
$$$$
