1trd_ligand
  -I-interpret- 

 14 13  0  0  0  0  0  0  0  0999 V2000
    5.5290  -23.8010  -16.5380 C   0  0  0  0  0
    6.6220  -23.2920  -17.4190 C   0  0  0  0  0
    4.3230  -23.2400  -16.9160 N   0  0  0  0  0
    3.3800  -23.2260  -16.0600 O   0  0  0  0  0
    5.7270  -24.6640  -15.6010 O   0  0  0  0  0
    7.9420  -23.3230  -16.8780 O   0  0  0  0  0
   10.4930  -22.8840  -16.8370 O   0  5  0  0  0
    9.5040  -24.7050  -18.2960 O   0  0  0  0  0
    9.1450  -22.2780  -18.8980 O   0  5  0  0  0
    9.2890  -23.2910  -17.7190 P   0  0  0  0  0
    6.3887  -22.2471  -17.6713 H   0  0  0  0  0
    6.6223  -23.8994  -18.3361 H   0  0  0  0  0
    4.1954  -22.8579  -17.8313 H   0  0  0  0  0
    2.6127  -22.8167  -16.4425 H   0  0  0  0  0
  1  5  2  0  0  0
  1  3  1  0  0  0
  1  2  1  0  0  0
  2  6  1  0  0  0
  6 10  1  0  0  0
 10  7  1  0  0  0
 10  8  2  0  0  0
 10  9  1  0  0  0
  3  4  1  0  0  0
  2 11  1  0  0  0
  2 12  1  0  0  0
  3 13  1  0  0  0
  4 14  1  0  0  0
M  END
$$$$
