### 
### Created by X-TOOL on Tue Oct 25 02:30:40 2005
### 

@<TRIPOS>MOLECULE
1trd_ligand
   14    13     1     0     0
SMALL
GAST_HUCK


@<TRIPOS>ATOM
      1 C1          5.5290  -23.8010  -16.5380 C.2       1 SUB1        0.229
      2 C2          6.6220  -23.2920  -17.4190 C.3       1 SUB1        0.156
      3 N3          4.3230  -23.2400  -16.9160 N.am      1 SUB1       -0.162
      4 O4          3.3800  -23.2260  -16.0600 O.3       1 SUB1       -0.272
      5 O5          5.7270  -24.6640  -15.6010 O.2       1 SUB1       -0.394
      6 O6          7.9420  -23.3230  -16.8780 O.3       1 SUB1       -0.301
      7 O7         10.4930  -22.8840  -16.8370 O.co2     1 SUB1       -0.535
      8 O8          9.5040  -24.7050  -18.2960 O.co2     1 SUB1       -0.535
      9 O9          9.1450  -22.2780  -18.8980 O.co2     1 SUB1       -0.535
     10 P10         9.2890  -23.2910  -17.7190 P.3       1 SUB1        0.207
     11 H21         6.3887  -22.2471  -17.6713 H         1 SUB1        0.086
     12 H22         6.6223  -23.8994  -18.3361 H         1 SUB1        0.086
     13 H31         4.1954  -22.8579  -17.8313 H         1 SUB1        0.222
     14 H41         2.6127  -22.8167  -16.4425 H         1 SUB1        0.249
@<TRIPOS>BOND
     1    1    5 2  
     2    1    3 am 
     3    1    2 1  
     4    2    6 1  
     5    6   10 1  
     6   10    7 2  
     7   10    8 2  
     8   10    9 2  
     9    3    4 1  
    10    2   11 1  
    11    2   12 1  
    12    3   13 1  
    13    4   14 1  
@<TRIPOS>SUBSTRUCTURE
     1 SUB1        1 GROUP

