1li3_ligand
  -I-interpret- 

 13 13  0  0  0  0  0  0  0  0999 V2000
   26.3291    4.1574    3.0901 H   0  0  0  0  0
   27.7250    5.3766    1.4470 H   0  0  0  0  0
   28.6895    7.5949    1.9108 H   0  0  0  0  0
   26.7987    7.4952    5.7685 H   0  0  0  0  0
   28.1142    9.2108    4.9869 H   0  0  0  0  0
   26.7240    5.1420    3.3130 C   0  0  0  0  0
   27.5210    5.8410    2.4050 C   0  0  0  0  0
   26.4670    5.7800    4.5160 C   0  0  0  0  0
   28.0720    7.0990    2.6510 C   0  0  0  0  0
   27.0030    7.0320    4.8100 C   0  0  0  0  0
   27.8030    7.6930    3.8740 C   0  0  0  0  0
   28.3730    8.9120    4.1230 O   0  0  0  0  0
   25.6770    5.1440    5.4360 Cl  0  0  0  0  0
  6  1  1  0  0  0
  7  2  1  0  0  0
  9  3  1  0  0  0
 10  4  1  0  0  0
 12  5  1  0  0  0
  6  8  4  0  0  0
  7  6  4  0  0  0
  9  7  4  0  0  0
 11  9  4  0  0  0
 11 12  1  0  0  0
 11 10  4  0  0  0
 10  8  4  0  0  0
  8 13  1  0  0  0
M  END
$$$$
