### 
### Created by X-TOOL on Mon Oct 24 22:51:45 2005
### 

@<TRIPOS>MOLECULE
1li3_ligand
   13    13     1     0     0
SMALL
GAST_HUCK


@<TRIPOS>ATOM
      1 H61        26.3291    4.1574    3.0901 H         1 SUB1        0.053
      2 H71        27.7250    5.3766    1.4470 H         1 SUB1        0.059
      3 H91        28.6895    7.5949    1.9108 H         1 SUB1        0.054
      4 H101       26.7987    7.4952    5.7685 H         1 SUB1        0.055
      5 H121       28.1142    9.2108    4.9869 H         1 SUB1        0.248
      6 C4         26.7240    5.1420    3.3130 C.ar      1 SUB1       -0.059
      7 C5         27.5210    5.8410    2.4050 C.ar      1 SUB1       -0.070
      8 C3         26.4670    5.7800    4.5160 C.ar      1 SUB1        0.032
      9 C6         28.0720    7.0990    2.6510 C.ar      1 SUB1       -0.033
     10 C2         27.0030    7.0320    4.8100 C.ar      1 SUB1       -0.020
     11 C1         27.8030    7.6930    3.8740 C.ar      1 SUB1        0.088
     12 OH         28.3730    8.9120    4.1230 O.3       1 SUB1       -0.333
     13 CL         25.6770    5.1440    5.4360 Cl        1 SUB1       -0.074
@<TRIPOS>BOND
     1    6    1 1  
     2    7    2 1  
     3    9    3 1  
     4   10    4 1  
     5   12    5 1  
     6    6    8 ar 
     7    7    6 ar 
     8    9    7 ar 
     9   11    9 ar 
    10   11   12 1  
    11   11   10 ar 
    12   10    8 ar 
    13    8   13 1  
@<TRIPOS>SUBSTRUCTURE
     1 SUB1        1 GROUP

