### 
### Created by X-TOOL on Tue Oct 25 00:58:43 2005
### 

@<TRIPOS>MOLECULE
1h1p_ligand
   35    37     1     0     0
SMALL
GAST_HUCK


@<TRIPOS>ATOM
      1 H251       33.7095   46.2715   21.2621 H         1 SUB1        0.063
      2 H252       32.4895   45.2734   20.4005 H         1 SUB1        0.063
      3 H271       36.0710   49.3712   15.8513 H         1 SUB1        0.132
      4 H281       36.0889   47.0780   14.7402 H         1 SUB1        0.238
      5 H291       33.0252   42.6648   17.6143 H         1 SUB1        0.181
      6 H292       33.9408   42.5653   16.0864 H         1 SUB1        0.181
      7 H301       30.7076   46.6173   21.0739 H         1 SUB1        0.033
      8 H311       32.8574   46.4656   23.2313 H         1 SUB1        0.027
      9 H312       31.4744   45.3586   22.9337 H         1 SUB1        0.027
     10 H321       31.2642   46.8721   24.9712 H         1 SUB1        0.026
     11 H322       29.8968   46.9313   23.8079 H         1 SUB1        0.026
     12 H331       32.1247   48.9784   24.1558 H         1 SUB1        0.026
     13 H332       30.3877   49.1674   24.5729 H         1 SUB1        0.026
     14 H341       31.0569   50.3183   22.3893 H         1 SUB1        0.026
     15 H342       29.7436   49.1081   22.1956 H         1 SUB1        0.026
     16 H351       31.2810   48.7510   20.3694 H         1 SUB1        0.027
     17 H352       32.7062   48.8349   21.4594 H         1 SUB1        0.027
     18 N1         33.3860   45.1310   18.1090 N.ar      1 SUB1       -0.244
     19 C2         33.8910   44.4080   16.9780 C.ar      1 SUB1        0.156
     20 N3         34.6070   45.0840   16.1150 N.ar      1 SUB1       -0.261
     21 C4         34.8710   46.4680   16.3200 C.ar      1 SUB1        0.144
     22 C5         34.3380   47.0780   17.3880 C.ar      1 SUB1        0.104
     23 C6         33.5680   46.3310   18.3990 C.ar      1 SUB1        0.175
     24 O6         33.0800   46.9870   19.4520 O.3       1 SUB1       -0.293
     25 C9         32.7960   46.3000   20.6500 C.3       1 SUB1        0.080
     26 N7         34.7930   48.4110   17.2250 N.2       1 SUB1       -0.302
     27 C8         35.5460   48.4800   16.1920 C.2       1 SUB1        0.103
     28 N9         35.5840   47.3040   15.6090 N.pl3     1 SUB1       -0.241
     29 N2         33.5970   43.1160   16.8860 N.pl3     1 SUB1       -0.311
     30 C10        31.6720   46.9610   21.4760 C.3       1 SUB1       -0.012
     31 C11        31.8010   46.4090   22.9300 C.3       1 SUB1       -0.048
     32 C12        30.9550   47.1880   23.9640 C.3       1 SUB1       -0.053
     33 C13        31.0980   48.7030   23.8730 C.3       1 SUB1       -0.053
     34 C14        30.8100   49.2470   22.4270 C.3       1 SUB1       -0.053
     35 C15        31.6670   48.4870   21.3650 C.3       1 SUB1       -0.048
@<TRIPOS>BOND
     1   25    1 1  
     2   25    2 1  
     3   27    3 1  
     4   28    4 1  
     5   29    5 1  
     6   29    6 1  
     7   30    7 1  
     8   31    8 1  
     9   31    9 1  
    10   32   10 1  
    11   32   11 1  
    12   33   12 1  
    13   33   13 1  
    14   34   14 1  
    15   34   15 1  
    16   35   16 1  
    17   35   17 1  
    18   23   18 ar 
    19   18   19 ar 
    20   19   29 1  
    21   20   19 ar 
    22   21   20 ar 
    23   21   28 1  
    24   22   21 ar 
    25   26   22 1  
    26   22   23 ar 
    27   23   24 1  
    28   24   25 1  
    29   25   30 1  
    30   30   35 1  
    31   30   31 1  
    32   31   32 1  
    33   32   33 1  
    34   34   33 1  
    35   35   34 1  
    36   26   27 2  
    37   27   28 1  
@<TRIPOS>SUBSTRUCTURE
     1 SUB1        1 GROUP

