1h1p_ligand
  -I-interpret- 

 35 37  0  0  0  0  0  0  0  0999 V2000
   33.7095   46.2715   21.2621 H   0  0  0  0  0
   32.4895   45.2734   20.4005 H   0  0  0  0  0
   36.0710   49.3712   15.8513 H   0  0  0  0  0
   36.0889   47.0780   14.7402 H   0  0  0  0  0
   33.0252   42.6648   17.6143 H   0  0  0  0  0
   33.9408   42.5653   16.0864 H   0  0  0  0  0
   30.7076   46.6173   21.0739 H   0  0  0  0  0
   32.8574   46.4656   23.2313 H   0  0  0  0  0
   31.4744   45.3586   22.9337 H   0  0  0  0  0
   31.2642   46.8721   24.9712 H   0  0  0  0  0
   29.8968   46.9313   23.8079 H   0  0  0  0  0
   32.1247   48.9784   24.1558 H   0  0  0  0  0
   30.3877   49.1674   24.5729 H   0  0  0  0  0
   31.0569   50.3183   22.3893 H   0  0  0  0  0
   29.7436   49.1081   22.1956 H   0  0  0  0  0
   31.2810   48.7510   20.3694 H   0  0  0  0  0
   32.7062   48.8349   21.4594 H   0  0  0  0  0
   33.3860   45.1310   18.1090 N   0  0  0  0  0
   33.8910   44.4080   16.9780 C   0  0  0  0  0
   34.6070   45.0840   16.1150 N   0  0  0  0  0
   34.8710   46.4680   16.3200 C   0  0  0  0  0
   34.3380   47.0780   17.3880 C   0  0  0  0  0
   33.5680   46.3310   18.3990 C   0  0  0  0  0
   33.0800   46.9870   19.4520 O   0  0  0  0  0
   32.7960   46.3000   20.6500 C   0  0  0  0  0
   34.7930   48.4110   17.2250 N   0  0  0  0  0
   35.5460   48.4800   16.1920 C   0  0  0  0  0
   35.5840   47.3040   15.6090 N   0  0  0  0  0
   33.5970   43.1160   16.8860 N   0  0  0  0  0
   31.6720   46.9610   21.4760 C   0  0  0  0  0
   31.8010   46.4090   22.9300 C   0  0  0  0  0
   30.9550   47.1880   23.9640 C   0  0  0  0  0
   31.0980   48.7030   23.8730 C   0  0  0  0  0
   30.8100   49.2470   22.4270 C   0  0  0  0  0
   31.6670   48.4870   21.3650 C   0  0  0  0  0
 25  1  1  0  0  0
 25  2  1  0  0  0
 27  3  1  0  0  0
 28  4  1  0  0  0
 29  5  1  0  0  0
 29  6  1  0  0  0
 30  7  1  0  0  0
 31  8  1  0  0  0
 31  9  1  0  0  0
 32 10  1  0  0  0
 32 11  1  0  0  0
 33 12  1  0  0  0
 33 13  1  0  0  0
 34 14  1  0  0  0
 34 15  1  0  0  0
 35 16  1  0  0  0
 35 17  1  0  0  0
 23 18  4  0  0  0
 18 19  4  0  0  0
 19 29  1  0  0  0
 20 19  4  0  0  0
 21 20  4  0  0  0
 21 28  1  0  0  0
 22 21  4  0  0  0
 26 22  1  0  0  0
 22 23  4  0  0  0
 23 24  1  0  0  0
 24 25  1  0  0  0
 25 30  1  0  0  0
 30 35  1  0  0  0
 30 31  1  0  0  0
 31 32  1  0  0  0
 32 33  1  0  0  0
 34 33  1  0  0  0
 35 34  1  0  0  0
 26 27  2  0  0  0
 27 28  1  0  0  0
M  END
$$$$
