### 
### Created by X-TOOL on Tue Oct 25 01:35:45 2005
### 

@<TRIPOS>MOLECULE
1nc3_ligand
   32    34     1     0     0
SMALL
GAST_HUCK


@<TRIPOS>ATOM
      1 N1         52.3740   40.6340   19.8220 N.ar      1 SUB1       -0.266
      2 C2         53.0720   40.6730   20.9860 C.ar      1 SUB1        0.052
      3 N3         54.3790   40.3340   21.1230 N.ar      1 SUB1       -0.301
      4 C4         55.0130   39.9130   19.8950 C.ar      1 SUB1        0.083
      5 C5         54.3400   39.8570   18.6580 C.ar      1 SUB1        0.156
      6 C6         52.9360   40.2410   18.6320 C.ar      1 SUB1        0.157
      7 N6         52.2010   40.2190   17.5170 N.pl3     1 SUB1       -0.313
      8 N7         55.2300   39.4200   17.7150 N.pl3     1 SUB1       -0.210
      9 N8         56.4730   39.1840   18.3130 N.2       1 SUB1       -0.202
     10 C9         56.3660   39.4700   19.6300 C.2       1 SUB1        0.085
     11 C1'        57.5470   39.3160   20.6570 C.3       1 SUB1        0.132
     12 C2'        57.4800   39.8800   22.1080 C.3       1 SUB1        0.119
     13 O2'        58.3590   40.9120   22.4350 O.3       1 SUB1       -0.385
     14 C3'        57.6840   38.6880   23.0240 C.3       1 SUB1        0.114
     15 O3'        59.0470   38.8150   23.5100 O.3       1 SUB1       -0.386
     16 C4'        57.4340   37.3850   22.2040 C.3       1 SUB1        0.113
     17 O4'        57.7800   37.8870   20.8390 O.3       1 SUB1       -0.354
     18 C5'        55.9500   36.8440   22.2000 C.3       1 SUB1        0.073
     19 O5'        55.4460   36.3460   23.4370 O.3       1 SUB1       -0.392
     20 H21        52.5445   41.0002   21.8747 H         1 SUB1        0.097
     21 H71        52.6254   39.9238   16.6261 H         1 SUB1        0.181
     22 H72        51.2098   40.4973   17.5480 H         1 SUB1        0.181
     23 H81        55.0173   39.2852   16.7163 H         1 SUB1        0.245
     24 H111       58.4307   39.7656   20.1807 H         1 SUB1        0.078
     25 H121       56.4626   40.2648   22.2715 H         1 SUB1        0.067
     26 H131       59.2534   40.6128   22.3208 H         1 SUB1        0.210
     27 H141       56.9771   38.7079   23.8665 H         1 SUB1        0.065
     28 H151       59.1400   39.6367   23.9776 H         1 SUB1        0.210
     29 H161       58.0947   36.5711   22.5370 H         1 SUB1        0.065
     30 H181       55.2889   37.6668   21.8905 H         1 SUB1        0.058
     31 H182       55.8901   36.0209   21.4728 H         1 SUB1        0.058
     32 H191       54.5514   36.0497   23.3169 H         1 SUB1        0.209
@<TRIPOS>BOND
     1    1    2 ar 
     2    1    6 ar 
     3    2    3 ar 
     4    3    4 ar 
     5    4    5 ar 
     6    4   10 1  
     7    5    6 ar 
     8    5    8 1  
     9    6    7 1  
    10    8    9 1  
    11    9   10 2  
    12   10   11 1  
    13   11   12 1  
    14   11   17 1  
    15   12   13 1  
    16   12   14 1  
    17   14   15 1  
    18   14   16 1  
    19   16   17 1  
    20   16   18 1  
    21   18   19 1  
    22    2   20 1  
    23    7   21 1  
    24    7   22 1  
    25    8   23 1  
    26   11   24 1  
    27   12   25 1  
    28   13   26 1  
    29   14   27 1  
    30   15   28 1  
    31   16   29 1  
    32   18   30 1  
    33   18   31 1  
    34   19   32 1  
@<TRIPOS>SUBSTRUCTURE
     1 SUB1        1 GROUP

