1lox_ligand
  -I-interpret- 

 38 38  0  0  0  0  0  0  0  0999 V2000
  -30.3200  149.5220   56.1764 H   0  0  0  0  0
  -28.2720  148.8510   55.7670 C   0  0  0  0  0
  -27.0700  149.1660   55.6110 O   0  5  0  0  0
  -28.6420  147.6640   55.6810 O   0  0  0  0  0
  -29.2890  149.8560   56.0700 C   0  0  0  0  0
  -29.0240  151.2110   56.2310 C   0  0  0  0  0
  -30.0100  152.0900   56.6730 C   0  0  0  0  0
  -31.3490  151.7020   56.5830 C   0  0  0  0  0
  -32.3620  152.4400   57.2150 C   0  0  0  0  0
  -32.0480  153.5860   57.9550 C   0  0  0  0  0
  -30.7210  154.0030   58.0660 C   0  0  0  0  0
  -29.7040  153.2740   57.4400 C   0  0  0  0  0
  -28.3750  153.6140   57.7750 C   0  0  0  0  0
  -27.0220  153.8520   58.0880 C   0  0  0  0  0
  -25.5530  153.9750   58.4200 C   0  0  0  0  0
  -25.0390  152.6490   58.9670 C   0  0  0  0  0
  -24.9570  151.5670   57.9010 C   0  0  0  0  0
  -23.8630  151.8470   56.8870 C   0  0  0  0  0
  -23.9060  150.8290   55.7600 C   0  0  0  0  0
  -22.7690  151.0690   54.8000 C   0  0  0  0  0
  -28.0285  151.5919   56.0078 H   0  0  0  0  0
  -31.6101  150.8161   56.0155 H   0  0  0  0  0
  -33.3943  152.1204   57.1295 H   0  0  0  0  0
  -32.8357  154.1495   58.4418 H   0  0  0  0  0
  -30.4781  154.8917   58.6372 H   0  0  0  0  0
  -25.4133  154.7615   59.1762 H   0  0  0  0  0
  -24.9929  154.2373   57.5103 H   0  0  0  0  0
  -25.7189  152.3089   59.7621 H   0  0  0  0  0
  -24.0344  152.8069   59.3862 H   0  0  0  0  0
  -25.9220  151.5125   57.3758 H   0  0  0  0  0
  -24.7501  150.6031   58.3890 H   0  0  0  0  0
  -22.8844  151.7924   57.3864 H   0  0  0  0  0
  -24.0060  152.8547   56.4697 H   0  0  0  0  0
  -24.8613  150.9216   55.2226 H   0  0  0  0  0
  -23.8188  149.8165   56.1810 H   0  0  0  0  0
  -22.8107  150.3266   53.9894 H   0  0  0  0  0
  -21.8120  150.9752   55.3342 H   0  0  0  0  0
  -22.8545  152.0803   54.3758 H   0  0  0  0  0
  2  5  1  0  0  0
  2  4  2  0  0  0
  2  3  1  0  0  0
  5  6  2  0  0  0
  6  7  1  0  0  0
  7 12  4  0  0  0
  7  8  4  0  0  0
  8  9  4  0  0  0
  9 10  4  0  0  0
 10 11  4  0  0  0
 11 12  4  0  0  0
 12 13  1  0  0  0
 13 14  3  0  0  0
 14 15  1  0  0  0
 15 16  1  0  0  0
 16 17  1  0  0  0
 17 18  1  0  0  0
 18 19  1  0  0  0
 19 20  1  0  0  0
  5  1  1  0  0  0
  6 21  1  0  0  0
  8 22  1  0  0  0
  9 23  1  0  0  0
 10 24  1  0  0  0
 11 25  1  0  0  0
 15 26  1  0  0  0
 15 27  1  0  0  0
 16 28  1  0  0  0
 16 29  1  0  0  0
 17 30  1  0  0  0
 17 31  1  0  0  0
 18 32  1  0  0  0
 18 33  1  0  0  0
 19 34  1  0  0  0
 19 35  1  0  0  0
 20 36  1  0  0  0
 20 37  1  0  0  0
 20 38  1  0  0  0
M  END
$$$$
