1oe8_ligand
  -I-interpret- 

 36 35  0  0  0  0  0  0  0  0999 V2000
   15.0660   -4.0860   22.2650 N   0  3  0  0  0
   14.6520   -2.6740   22.7050 C   0  0  0  0  0
   14.7280   -1.8090   21.3790 C   0  0  0  0  0
   14.0200   -0.8370   21.1870 O   0  0  0  0  0
   15.5450   -2.3440   20.5710 O   0  5  0  0  0
   15.7730   -2.1280   23.6290 C   0  0  0  0  0
   15.3630   -0.7590   24.2500 C   0  0  0  0  0
   16.3750   -0.3640   25.3180 C   0  0  0  0  0
   17.1410   -1.1950   25.9190 O   0  0  0  0  0
   16.4990    0.9440   25.5880 N   0  0  0  0  0
   17.4370    1.2270   26.6510 C   0  0  0  0  0
   16.6940    2.3350   27.5300 C   0  0  0  0  0
   15.7380    2.9700   27.1000 O   0  0  0  0  0
   18.6290    2.0520   26.0840 C   0  0  0  0  0
   19.4780    1.0670   24.8360 S   0  0  0  0  0
   17.2050    2.5640   28.7640 N   0  0  0  0  0
   16.5300    3.5880   29.5800 C   0  0  0  0  0
   15.6780    2.9400   30.6650 C   0  0  0  0  0
   15.2190    3.7020   31.5620 O   0  5  0  0  0
   15.5390    1.6870   30.6260 O   0  0  0  0  0
   15.0412   -4.6994   23.0645 H   0  0  0  0  0
   14.4253   -4.4303   21.5672 H   0  0  0  0  0
   16.0027   -4.0693   21.8931 H   0  0  0  0  0
   13.6676   -2.6431   23.1948 H   0  0  0  0  0
   15.9552   -2.8418   24.4458 H   0  0  0  0  0
   16.6933   -1.9848   23.0438 H   0  0  0  0  0
   15.3484    0.0156   23.4692 H   0  0  0  0  0
   14.3693   -0.8424   24.7143 H   0  0  0  0  0
   15.9915    1.6548   25.1010 H   0  0  0  0  0
   17.7601    0.3308   27.2008 H   0  0  0  0  0
   18.2581    2.9775   25.6194 H   0  0  0  0  0
   19.3356    2.2947   26.8913 H   0  0  0  0  0
   20.2522    1.5941   24.4631 H   0  0  0  0  0
   18.0008    2.0628   29.1038 H   0  0  0  0  0
   17.2832    4.2283   30.0623 H   0  0  0  0  0
   15.8760    4.1965   28.9382 H   0  0  0  0  0
  1  2  1  0  0  0
  2  3  1  0  0  0
  2  6  1  0  0  0
  3  4  2  0  0  0
  3  5  1  0  0  0
  6  7  1  0  0  0
  7  8  1  0  0  0
  8  9  2  0  0  0
  8 10  1  0  0  0
 10 11  1  0  0  0
 11 12  1  0  0  0
 11 14  1  0  0  0
 12 13  2  0  0  0
 12 16  1  0  0  0
 14 15  1  0  0  0
 16 17  1  0  0  0
 17 18  1  0  0  0
 18 19  1  0  0  0
 18 20  2  0  0  0
  1 21  1  0  0  0
  1 22  1  0  0  0
  1 23  1  0  0  0
  2 24  1  0  0  0
  6 25  1  0  0  0
  6 26  1  0  0  0
  7 27  1  0  0  0
  7 28  1  0  0  0
 10 29  1  0  0  0
 11 30  1  0  0  0
 14 31  1  0  0  0
 14 32  1  0  0  0
 15 33  1  0  0  0
 16 34  1  0  0  0
 17 35  1  0  0  0
 17 36  1  0  0  0
M  END
$$$$
