### 
### Created by X-TOOL on Mon Oct 24 22:27:18 2005
### 

@<TRIPOS>MOLECULE
1oe8_ligand
   36    35     1     0     0
SMALL
GAST_HUCK


@<TRIPOS>ATOM
      1 N1         15.0660   -4.0860   22.2650 N.4       1 SUB1        0.238
      2 CA1        14.6520   -2.6740   22.7050 C.3       1 SUB1        0.017
      3 C1         14.7280   -1.8090   21.3790 C.2       1 SUB1        0.076
      4 O11        14.0200   -0.8370   21.1870 O.co2     1 SUB1       -0.561
      5 O12        15.5450   -2.3440   20.5710 O.co2     1 SUB1       -0.561
      6 CB1        15.7730   -2.1280   23.6290 C.3       1 SUB1        0.018
      7 CG1        15.3630   -0.7590   24.2500 C.3       1 SUB1        0.045
      8 CD1        16.3750   -0.3640   25.3180 C.2       1 SUB1        0.179
      9 OE1        17.1410   -1.1950   25.9190 O.2       1 SUB1       -0.397
     10 N2         16.4990    0.9440   25.5880 N.am      1 SUB1       -0.265
     11 CA2        17.4370    1.2270   26.6510 C.3       1 SUB1        0.140
     12 C2         16.6940    2.3350   27.5300 C.2       1 SUB1        0.205
     13 O2         15.7380    2.9700   27.1000 O.2       1 SUB1       -0.394
     14 CB2        18.6290    2.0520   26.0840 C.3       1 SUB1        0.031
     15 SG2        19.4780    1.0670   24.8360 S.3       1 SUB1       -0.174
     16 N3         17.2050    2.5640   28.7640 N.am      1 SUB1       -0.271
     17 CA3        16.5300    3.5880   29.5800 C.3       1 SUB1        0.070
     18 C3         15.6780    2.9400   30.6650 C.2       1 SUB1        0.050
     19 O31        15.2190    3.7020   31.5620 O.co2     1 SUB1       -0.564
     20 O32        15.5390    1.6870   30.6260 O.co2     1 SUB1       -0.564
     21 H11        15.0412   -4.6994   23.0645 H         1 SUB1        0.202
     22 H12        14.4253   -4.4303   21.5672 H         1 SUB1        0.202
     23 H13        16.0027   -4.0693   21.8931 H         1 SUB1        0.202
     24 H21        13.6676   -2.6431   23.1948 H         1 SUB1        0.107
     25 H61        15.9552   -2.8418   24.4458 H         1 SUB1        0.038
     26 H62        16.6933   -1.9848   23.0438 H         1 SUB1        0.038
     27 H71        15.3484    0.0156   23.4692 H         1 SUB1        0.051
     28 H72        14.3693   -0.8424   24.7143 H         1 SUB1        0.051
     29 H101       15.9915    1.6548   25.1010 H         1 SUB1        0.188
     30 H111       17.7601    0.3308   27.2008 H         1 SUB1        0.081
     31 H141       18.2581    2.9775   25.6194 H         1 SUB1        0.042
     32 H142       19.3356    2.2947   26.8913 H         1 SUB1        0.042
     33 H151       20.2522    1.5941   24.4631 H         1 SUB1        0.102
     34 H161       18.0008    2.0628   29.1038 H         1 SUB1        0.190
     35 H171       17.2832    4.2283   30.0623 H         1 SUB1        0.074
     36 H172       15.8760    4.1965   28.9382 H         1 SUB1        0.074
@<TRIPOS>BOND
     1    1    2 1  
     2    2    3 1  
     3    2    6 1  
     4    3    4 2  
     5    3    5 2  
     6    6    7 1  
     7    7    8 1  
     8    8    9 2  
     9    8   10 am 
    10   10   11 1  
    11   11   12 1  
    12   11   14 1  
    13   12   13 2  
    14   12   16 am 
    15   14   15 1  
    16   16   17 1  
    17   17   18 1  
    18   18   19 2  
    19   18   20 2  
    20    1   21 1  
    21    1   22 1  
    22    1   23 1  
    23    2   24 1  
    24    6   25 1  
    25    6   26 1  
    26    7   27 1  
    27    7   28 1  
    28   10   29 1  
    29   11   30 1  
    30   14   31 1  
    31   14   32 1  
    32   15   33 1  
    33   16   34 1  
    34   17   35 1  
    35   17   36 1  
@<TRIPOS>SUBSTRUCTURE
     1 SUB1        1 GROUP

