### 
### Created by X-TOOL on Mon Oct 24 22:05:41 2005
### 

@<TRIPOS>MOLECULE
1p1n_ligand
   28    28     1     0     0
SMALL
GAST_HUCK


@<TRIPOS>ATOM
      1 N          13.6940    3.0170   16.1000 N.3       1 SUB1       -0.296
      2 CD         14.6330    4.1480   15.7670 C.3       1 SUB1        0.015
      3 CD1        17.0860    5.0280   14.4380 C.2       1 SUB1       -0.129
      4 CD2        18.5830    3.5700   15.6900 C.3       1 SUB1       -0.030
      5 CA         14.4440    1.8130   16.2830 C.3       1 SUB1        0.055
      6 CB         15.8080    1.9430   15.6100 C.3       1 SUB1        0.013
      7 CB1        15.7940    1.7100   14.0950 C.3       1 SUB1       -0.004
      8 CG         15.9940    3.3470   15.7600 C.3       1 SUB1        0.016
      9 CG1        15.8430    0.2610   13.6720 C.2       1 SUB1        0.029
     10 CG2        17.2680    4.0640   15.2500 C.2       1 SUB1       -0.071
     11 C          14.6040    1.4730   17.8000 C.2       1 SUB1        0.045
     12 O          13.9600    2.2010   18.5850 O.co2     1 SUB1       -0.565
     13 OD1        15.6720    0.0330   12.4540 O.co2     1 SUB1       -0.567
     14 OD2        16.0610   -0.5940   14.5540 O.co2     1 SUB1       -0.567
     15 OXT        15.3410    0.5050   18.0830 O.co2     1 SUB1       -0.565
     16 H11        13.1619    3.2395   17.0130 H         1 SUB1        0.127
     17 H21        14.4218    4.5901   14.7822 H         1 SUB1        0.046
     18 H22        14.6323    4.9324   16.5382 H         1 SUB1        0.046
     19 H31        17.9404    5.5746   14.0414 H         1 SUB1        0.007
     20 H32        16.0760    5.3058   14.1402 H         1 SUB1        0.007
     21 H41        18.4358    2.7333   16.3888 H         1 SUB1        0.043
     22 H42        19.1597    3.2153   14.8231 H         1 SUB1        0.043
     23 H43        19.1327    4.3727   16.2032 H         1 SUB1        0.043
     24 H51        13.8962    0.9816   15.8154 H         1 SUB1        0.069
     25 H61        16.5833    1.3392   16.1042 H         1 SUB1        0.042
     26 H71        14.8698    2.1430   13.6848 H         1 SUB1        0.049
     27 H72        16.6696    2.2118   13.6575 H         1 SUB1        0.049
     28 H81        16.2390    3.3795   16.8318 H         1 SUB1        0.052
@<TRIPOS>BOND
     1    1    2 1  
     2    1    5 1  
     3    2    8 1  
     4    5    6 1  
     5    5   11 1  
     6    6    7 1  
     7    6    8 1  
     8    7    9 1  
     9    8   10 1  
    10    9   13 2  
    11    9   14 2  
    12   11   12 2  
    13   11   15 2  
    14   10    4 1  
    15   10    3 2  
    16    1   16 1  
    17    2   17 1  
    18    2   18 1  
    19    3   19 1  
    20    3   20 1  
    21    4   21 1  
    22    4   22 1  
    23    4   23 1  
    24    5   24 1  
    25    6   25 1  
    26    7   26 1  
    27    7   27 1  
    28    8   28 1  
@<TRIPOS>SUBSTRUCTURE
     1 SUB1        1 GROUP

