1p1n_ligand
  -I-interpret- 

 28 28  0  0  0  0  0  0  0  0999 V2000
   13.6940    3.0170   16.1000 N   0  0  0  0  0
   14.6330    4.1480   15.7670 C   0  0  0  0  0
   17.0860    5.0280   14.4380 C   0  0  0  0  0
   18.5830    3.5700   15.6900 C   0  0  0  0  0
   14.4440    1.8130   16.2830 C   0  0  0  0  0
   15.8080    1.9430   15.6100 C   0  0  0  0  0
   15.7940    1.7100   14.0950 C   0  0  0  0  0
   15.9940    3.3470   15.7600 C   0  0  0  0  0
   15.8430    0.2610   13.6720 C   0  0  0  0  0
   17.2680    4.0640   15.2500 C   0  0  0  0  0
   14.6040    1.4730   17.8000 C   0  0  0  0  0
   13.9600    2.2010   18.5850 O   0  5  0  0  0
   15.6720    0.0330   12.4540 O   0  5  0  0  0
   16.0610   -0.5940   14.5540 O   0  0  0  0  0
   15.3410    0.5050   18.0830 O   0  0  0  0  0
   13.1619    3.2395   17.0130 H   0  0  0  0  0
   14.4218    4.5901   14.7822 H   0  0  0  0  0
   14.6323    4.9324   16.5382 H   0  0  0  0  0
   17.9404    5.5746   14.0414 H   0  0  0  0  0
   16.0760    5.3058   14.1402 H   0  0  0  0  0
   18.4358    2.7333   16.3888 H   0  0  0  0  0
   19.1597    3.2153   14.8231 H   0  0  0  0  0
   19.1327    4.3727   16.2032 H   0  0  0  0  0
   13.8962    0.9816   15.8154 H   0  0  0  0  0
   16.5833    1.3392   16.1042 H   0  0  0  0  0
   14.8698    2.1430   13.6848 H   0  0  0  0  0
   16.6696    2.2118   13.6575 H   0  0  0  0  0
   16.2390    3.3795   16.8318 H   0  0  0  0  0
  1  2  1  0  0  0
  1  5  1  0  0  0
  2  8  1  0  0  0
  5  6  1  0  0  0
  5 11  1  0  0  0
  6  7  1  0  0  0
  6  8  1  0  0  0
  7  9  1  0  0  0
  8 10  1  0  0  0
  9 13  1  0  0  0
  9 14  2  0  0  0
 11 12  1  0  0  0
 11 15  2  0  0  0
 10  4  1  0  0  0
 10  3  2  0  0  0
  1 16  1  0  0  0
  2 17  1  0  0  0
  2 18  1  0  0  0
  3 19  1  0  0  0
  3 20  1  0  0  0
  4 21  1  0  0  0
  4 22  1  0  0  0
  4 23  1  0  0  0
  5 24  1  0  0  0
  6 25  1  0  0  0
  7 26  1  0  0  0
  7 27  1  0  0  0
  8 28  1  0  0  0
M  END
$$$$
