1ndw_ligand
  -I-interpret- 

 36 37  0  0  0  0  0  0  0  0999 V2000
   50.4340   54.0830   20.9940 C   0  0  0  0  0
   50.6030   55.0790   22.0270 N   0  0  0  0  0
   50.6220   54.4610   23.1890 C   0  0  0  0  0
   50.4690   53.1940   23.0560 N   0  0  0  0  0
   50.3370   52.9290   21.6470 C   0  0  0  0  0
   50.2100   51.6160   21.0130 C   0  0  0  0  0
   50.0870   51.4860   19.7810 O   0  0  0  0  0
   50.1230   50.5410   21.7810 N   0  0  0  0  0
   50.5660   56.5430   21.8290 C   0  0  0  0  0
   51.9810   57.0740   21.4570 C   0  0  0  0  0
   52.7530   56.4190   22.5180 O   0  0  0  0  0
   49.5410   57.0630   20.8240 C   0  0  0  0  0
   48.1120   56.5170   21.1270 C   0  0  0  0  0
   47.0200   57.1540   20.2770 C   0  0  0  0  0
   45.7190   56.7140   20.4330 C   0  0  0  0  0
   44.6770   57.2580   19.6930 C   0  0  0  0  0
   44.9510   58.2310   18.7200 C   0  0  0  0  0
   46.2640   58.6890   18.5160 C   0  0  0  0  0
   47.2690   58.1390   19.3390 C   0  0  0  0  0
   50.3947   54.2425   19.9175 H   0  0  0  0  0
   50.7517   54.9636   24.1463 H   0  0  0  0  0
   50.0357   49.6355   21.3657 H   0  0  0  0  0
   50.1446   50.6345   22.7764 H   0  0  0  0  0
   50.2826   56.9841   22.7960 H   0  0  0  0  0
   52.3042   56.7413   20.4596 H   0  0  0  0  0
   52.0489   58.1696   21.5272 H   0  0  0  0  0
   52.6535   55.4771   22.4450 H   0  0  0  0  0
   49.5094   58.1614   20.8723 H   0  0  0  0  0
   49.8277   56.7402   19.8123 H   0  0  0  0  0
   48.0989   55.4340   20.9352 H   0  0  0  0  0
   47.8744   56.7138   22.1828 H   0  0  0  0  0
   45.5073   55.9274   21.1483 H   0  0  0  0  0
   43.6576   56.9326   19.8663 H   0  0  0  0  0
   44.1426   58.6332   18.1201 H   0  0  0  0  0
   46.4940   59.4314   17.7603 H   0  0  0  0  0
   48.2835   58.5055   19.2311 H   0  0  0  0  0
  1  2  1  0  0  0
  1  5  2  0  0  0
  2  3  1  0  0  0
  2  9  1  0  0  0
  3  4  2  0  0  0
  4  5  1  0  0  0
  5  6  1  0  0  0
  6  7  2  0  0  0
  6  8  1  0  0  0
  9 10  1  0  0  0
  9 12  1  0  0  0
 10 11  1  0  0  0
 12 13  1  0  0  0
 13 14  1  0  0  0
 14 15  4  0  0  0
 14 19  4  0  0  0
 15 16  4  0  0  0
 16 17  4  0  0  0
 17 18  4  0  0  0
 18 19  4  0  0  0
  1 20  1  0  0  0
  3 21  1  0  0  0
  8 22  1  0  0  0
  8 23  1  0  0  0
  9 24  1  0  0  0
 10 25  1  0  0  0
 10 26  1  0  0  0
 11 27  1  0  0  0
 12 28  1  0  0  0
 12 29  1  0  0  0
 13 30  1  0  0  0
 13 31  1  0  0  0
 15 32  1  0  0  0
 16 33  1  0  0  0
 17 34  1  0  0  0
 18 35  1  0  0  0
 19 36  1  0  0  0
M  END
$$$$
