### 
### Created by X-TOOL on Tue Oct 25 00:09:17 2005
### 

@<TRIPOS>MOLECULE
1ndw_ligand
   36    37     1     0     0
SMALL
GAST_HUCK


@<TRIPOS>ATOM
      1 C1         50.4340   54.0830   20.9940 C.2       1 SUB1        0.064
      2 N2         50.6030   55.0790   22.0270 N.pl3     1 SUB1       -0.237
      3 C3         50.6220   54.4610   23.1890 C.2       1 SUB1        0.104
      4 N4         50.4690   53.1940   23.0560 N.2       1 SUB1       -0.310
      5 C5         50.3370   52.9290   21.6470 C.2       1 SUB1        0.090
      6 C8         50.2100   51.6160   21.0130 C.2       1 SUB1        0.189
      7 O9         50.0870   51.4860   19.7810 O.2       1 SUB1       -0.398
      8 N10        50.1230   50.5410   21.7810 N.am      1 SUB1       -0.304
      9 C13        50.5660   56.5430   21.8290 C.3       1 SUB1        0.097
     10 C14        51.9810   57.0740   21.4570 C.3       1 SUB1        0.076
     11 O15        52.7530   56.4190   22.5180 O.3       1 SUB1       -0.392
     12 C18        49.5410   57.0630   20.8240 C.3       1 SUB1       -0.009
     13 C19        48.1120   56.5170   21.1270 C.3       1 SUB1       -0.016
     14 C22        47.0200   57.1540   20.2770 C.ar      1 SUB1       -0.043
     15 C25        45.7190   56.7140   20.4330 C.ar      1 SUB1       -0.060
     16 C26        44.6770   57.2580   19.6930 C.ar      1 SUB1       -0.069
     17 C27        44.9510   58.2310   18.7200 C.ar      1 SUB1       -0.069
     18 C28        46.2640   58.6890   18.5160 C.ar      1 SUB1       -0.069
     19 C29        47.2690   58.1390   19.3390 C.ar      1 SUB1       -0.060
     20 H11        50.3947   54.2425   19.9175 H         1 SUB1        0.099
     21 H31        50.7517   54.9636   24.1463 H         1 SUB1        0.124
     22 H81        50.0357   49.6355   21.3657 H         1 SUB1        0.180
     23 H82        50.1446   50.6345   22.7764 H         1 SUB1        0.180
     24 H91        50.2826   56.9841   22.7960 H         1 SUB1        0.069
     25 H101       52.3042   56.7413   20.4596 H         1 SUB1        0.059
     26 H102       52.0489   58.1696   21.5272 H         1 SUB1        0.059
     27 H111       52.6535   55.4771   22.4450 H         1 SUB1        0.209
     28 H121       49.5094   58.1614   20.8723 H         1 SUB1        0.032
     29 H122       49.8277   56.7402   19.8123 H         1 SUB1        0.032
     30 H131       48.0989   55.4340   20.9352 H         1 SUB1        0.043
     31 H132       47.8744   56.7138   22.1828 H         1 SUB1        0.043
     32 H151       45.5073   55.9274   21.1483 H         1 SUB1        0.056
     33 H161       43.6576   56.9326   19.8663 H         1 SUB1        0.060
     34 H171       44.1426   58.6332   18.1201 H         1 SUB1        0.056
     35 H181       46.4940   59.4314   17.7603 H         1 SUB1        0.060
     36 H191       48.2835   58.5055   19.2311 H         1 SUB1        0.056
@<TRIPOS>BOND
     1    1    2 1  
     2    1    5 2  
     3    2    3 1  
     4    2    9 1  
     5    3    4 2  
     6    4    5 1  
     7    5    6 1  
     8    6    7 2  
     9    6    8 am 
    10    9   10 1  
    11    9   12 1  
    12   10   11 1  
    13   12   13 1  
    14   13   14 1  
    15   14   15 ar 
    16   14   19 ar 
    17   15   16 ar 
    18   16   17 ar 
    19   17   18 ar 
    20   18   19 ar 
    21    1   20 1  
    22    3   21 1  
    23    8   22 1  
    24    8   23 1  
    25    9   24 1  
    26   10   25 1  
    27   10   26 1  
    28   11   27 1  
    29   12   28 1  
    30   12   29 1  
    31   13   30 1  
    32   13   31 1  
    33   15   32 1  
    34   16   33 1  
    35   17   34 1  
    36   18   35 1  
    37   19   36 1  
@<TRIPOS>SUBSTRUCTURE
     1 SUB1        1 GROUP

