1q63_ligand
  -I-interpret- 

 32 34  0  0  0  0  0  0  0  0999 V2000
   17.1200   16.9780   18.7150 C   0  0  0  0  0
   16.1100   16.7320   19.6880 C   0  0  0  0  0
   14.6830   16.2780   19.3100 C   0  0  0  0  0
   16.4330   16.9180   21.0770 C   0  0  0  0  0
   15.5010   16.7080   22.0600 N   0  0  0  0  0
   15.7260   16.8550   23.3340 C   0  0  0  0  0
   14.7460   16.6260   24.1880 N   0  0  0  0  0
   16.9230   17.2350   23.7910 N   0  0  0  0  0
   17.9550   17.4860   22.9740 C   0  0  0  0  0
   19.0470   17.8380   23.3850 O   0  0  0  0  0
   17.7530   17.3350   21.4630 C   0  0  0  0  0
   18.7550   17.5760   20.4740 C   0  0  0  0  0
   18.4340   17.4000   19.1020 C   0  0  0  0  0
   19.3640   17.6370   18.1490 N   0  0  0  0  0
   14.6000   14.6760   18.4390 S   0  0  0  0  0
   14.2310   15.2820   16.7880 C   0  0  0  0  0
   15.0760   16.0320   16.0590 N   0  0  0  0  0
   13.1890   15.1010   16.1020 N   0  0  0  0  0
   14.4480   16.2820   14.8890 C   0  0  0  0  0
   13.2320   15.7310   14.8140 C   0  0  0  0  0
   16.8913   16.8439   17.6639 H   0  0  0  0  0
   14.2401   17.0458   18.6586 H   0  0  0  0  0
   14.0928   16.1966   20.2346 H   0  0  0  0  0
   13.8207   16.3328   23.8435 H   0  0  0  0  0
   14.9066   16.7405   25.1989 H   0  0  0  0  0
   17.0531   17.3356   24.7774 H   0  0  0  0  0
   19.7501   17.8900   20.7677 H   0  0  0  0  0
   19.1271   17.5081   17.1549 H   0  0  0  0  0
   20.3091   17.9463   18.4173 H   0  0  0  0  0
   16.0147   16.3521   16.3370 H   0  0  0  0  0
   14.8882   16.8731   14.0873 H   0  0  0  0  0
   12.4940   15.7537   14.0135 H   0  0  0  0  0
  1  2  4  0  0  0
  1 13  4  0  0  0
  2  3  1  0  0  0
  2  4  4  0  0  0
  3 15  1  0  0  0
  4  5  1  0  0  0
  4 11  4  0  0  0
  5  6  2  0  0  0
  6  7  1  0  0  0
  6  8  1  0  0  0
  8  9  1  0  0  0
  9 10  2  0  0  0
  9 11  1  0  0  0
 11 12  4  0  0  0
 12 13  4  0  0  0
 13 14  1  0  0  0
 15 16  1  0  0  0
 16 17  1  0  0  0
 16 18  2  0  0  0
 17 19  1  0  0  0
 18 20  1  0  0  0
 19 20  2  0  0  0
  1 21  1  0  0  0
  3 22  1  0  0  0
  3 23  1  0  0  0
  7 24  1  0  0  0
  7 25  1  0  0  0
  8 26  1  0  0  0
 12 27  1  0  0  0
 14 28  1  0  0  0
 14 29  1  0  0  0
 17 30  1  0  0  0
 19 31  1  0  0  0
 20 32  1  0  0  0
M  END
$$$$
