### 
### Created by X-TOOL on Sun Jun  3 12:00:43 2007
### 

@<TRIPOS>MOLECULE
2dua_ligand
    6     5     1     0     0
SMALL
GAST_HUCK


@<TRIPOS>ATOM
      1 C1         53.4390   25.1270   41.0560 C.2       1 SUB1        0.473
      2 C2         53.4160   23.7870   40.4390 C.2       1 SUB1        0.473
      3 O1         54.4310   25.9250   40.7940 O.2       1 SUB1       -0.236
      4 O2         52.3250   23.1400   40.4560 O.2       1 SUB1       -0.236
      5 O3         52.4770   25.4200   41.7960 O.2       1 SUB1       -0.236
      6 O4         54.4540   23.3490   39.8990 O.2       1 SUB1       -0.236
@<TRIPOS>BOND
     1    1    2 1  
     2    1    3 2  
     3    1    5 2  
     4    2    4 2  
     5    2    6 2  
@<TRIPOS>SUBSTRUCTURE
     1 SUB1        1 GROUP

