2dua_ligand
  -I-interpret- 

  6  5  0  0  0  0  0  0  0  0999 V2000
   53.4390   25.1270   41.0560 C   0  0  0  0  0
   53.4160   23.7870   40.4390 C   0  0  0  0  0
   54.4310   25.9250   40.7940 O   0  5  0  0  0
   52.3250   23.1400   40.4560 O   0  5  0  0  0
   52.4770   25.4200   41.7960 O   0  0  0  0  0
   54.4540   23.3490   39.8990 O   0  0  0  0  0
  1  2  1  0  0  0
  1  3  1  0  0  0
  1  5  2  0  0  0
  2  4  1  0  0  0
  2  6  2  0  0  0
M  END
$$$$
