2hdr_ligand
  -I-interpret- 

 17 17  0  0  0  0  0  0  0  0999 V2000
   19.9420   -8.7900    4.2420 C   0  0  0  0  0
   18.1030   -7.2850    4.7000 C   0  0  0  0  0
   17.4990   -5.9130    4.6980 C   0  0  0  0  0
   17.1540  -10.6860    5.6590 O   0  0  0  0  0
   19.1820   -9.8580    4.7230 C   0  0  0  0  0
   19.4040   -7.5010    4.2310 C   0  0  0  0  0
   17.3530   -8.3590    5.1800 C   0  0  0  0  0
   17.8940   -9.6410    5.1860 C   0  0  0  0  0
   16.3350   -5.7700    5.1300 O   0  5  0  0  0
   18.1630   -4.9450    4.2690 O   0  0  0  0  0
   19.6990  -11.1110    4.7370 N   0  0  0  0  0
   20.9540   -8.9620    3.8755 H   0  0  0  0  0
   16.2927  -10.3665    5.9377 H   0  0  0  0  0
   19.9960   -6.6652    3.8580 H   0  0  0  0  0
   16.3415   -8.1936    5.5510 H   0  0  0  0  0
   20.6459  -11.2759    4.3955 H   0  0  0  0  0
   19.1411  -11.8890    5.0890 H   0  0  0  0  0
  5  1  4  0  0  0
  1  6  4  0  0  0
  2  3  1  0  0  0
  6  2  4  0  0  0
  2  7  4  0  0  0
  3  9  1  0  0  0
  3 10  2  0  0  0
  8  4  1  0  0  0
  5  8  4  0  0  0
  5 11  1  0  0  0
  7  8  4  0  0  0
  1 12  1  0  0  0
  4 13  1  0  0  0
  6 14  1  0  0  0
  7 15  1  0  0  0
 11 16  1  0  0  0
 11 17  1  0  0  0
M  END
$$$$
