### 
### Created by X-TOOL on Sun Jun  3 12:43:10 2007
### 

@<TRIPOS>MOLECULE
2hdr_ligand
   17    17     1     0     0
SMALL
GAST_HUCK


@<TRIPOS>ATOM
      1 C3         19.9420   -8.7900    4.2420 C.ar      1 SUB1        0.035
      2 C5         18.1030   -7.2850    4.7000 C.ar      1 SUB1        0.057
      3 C8         17.4990   -5.9130    4.6980 C.2       1 SUB1        0.090
      4 O9         17.1540  -10.6860    5.6590 O.3       1 SUB1       -0.268
      5 C2         19.1820   -9.8580    4.7230 C.ar      1 SUB1        0.196
      6 C4         19.4040   -7.5010    4.2310 C.ar      1 SUB1       -0.002
      7 C6         17.3530   -8.3590    5.1800 C.ar      1 SUB1        0.051
      8 C7         17.8940   -9.6410    5.1860 C.ar      1 SUB1        0.229
      9 O10        16.3350   -5.7700    5.1300 O.2       1 SUB1       -0.551
     10 O11        18.1630   -4.9450    4.2690 O.2       1 SUB1       -0.551
     11 N1         19.6990  -11.1110    4.7370 N.pl3     1 SUB1       -0.273
     12 H          20.9540   -8.9620    3.8755 H         1 SUB1        0.075
     13 H          16.2927  -10.3665    5.9377 H         1 SUB1        0.290
     14 H          19.9960   -6.6652    3.8580 H         1 SUB1        0.091
     15 H          16.3415   -8.1936    5.5510 H         1 SUB1        0.074
     16 H          20.6459  -11.2759    4.3955 H         1 SUB1        0.229
     17 H          19.1411  -11.8890    5.0890 H         1 SUB1        0.229
@<TRIPOS>BOND
     1    5    1 ar 
     2    1    6 ar 
     3    2    3 1  
     4    6    2 ar 
     5    2    7 ar 
     6    3    9 2  
     7    3   10 2  
     8    8    4 1  
     9    5    8 ar 
    10    5   11 1  
    11    7    8 ar 
    12    1   12 1  
    13    4   13 1  
    14    6   14 1  
    15    7   15 1  
    16   11   16 1  
    17   11   17 1  
@<TRIPOS>SUBSTRUCTURE
     1 SUB1        1 GROUP

