1jqe_ligand
  -I-interpret- 

 58 60  0  0  0  0  0  0  0  0999 V2000
   41.6650  -31.1290    4.2750 C   0  0  0  0  0
   40.4360  -30.7000    5.0250 C   0  0  0  0  0
   39.4220  -31.7070    5.4890 C   0  0  0  0  0
   39.6240  -33.1750    5.2080 C   0  0  0  0  0
   40.9070  -33.6220    4.4270 C   0  0  0  0  0
   41.8640  -32.5680    4.0010 C   0  0  0  0  0
   38.6510  -34.1250    5.6560 N   0  0  0  0  0
   38.8290  -35.5270    5.3920 C   0  0  0  0  0
   40.0720  -36.0780    4.6280 C   0  0  0  0  0
   41.1140  -35.1620    4.1350 C   0  0  0  0  0
   37.8190  -36.5020    5.8680 C   0  0  0  0  0
   38.0080  -37.9840    5.5990 C   0  0  0  0  0
   39.1880  -38.4890    4.8670 C   0  0  0  0  0
   40.2050  -37.5440    4.3850 C   0  0  0  0  0
   36.8820  -39.0590    6.1370 Cl  0  0  0  0  0
   42.6930  -30.0960    3.7940 O   0  0  0  0  0
   43.5960  -29.6970    4.7700 C   0  0  0  0  0
   42.3760  -35.8550    3.3560 N   0  0  0  0  0
   42.9940  -35.5190    1.9830 C   0  0  0  0  0
   43.9280  -34.3130    2.0780 C   0  0  0  0  0
   41.9070  -35.3260    1.0170 C   0  0  0  0  0
   42.2820  -34.9680   -0.3890 C   0  0  0  0  0
   40.9470  -34.8860   -0.9480 C   0  0  0  0  0
   40.7170  -34.4950   -2.3570 N   0  0  0  0  0
   39.2470  -34.5690   -2.4480 C   0  0  0  0  0
   41.3410  -35.3620   -3.4010 C   0  0  0  0  0
   38.5020  -35.9590   -2.2620 C   0  0  0  0  0
   41.0260  -34.7940   -4.8390 C   0  0  0  0  0
   40.2784  -29.6482    5.2345 H   0  0  0  0  0
   38.5414  -31.3770    6.0281 H   0  0  0  0  0
   42.7543  -32.8700    3.4613 H   0  0  0  0  0
   36.9451  -36.1566    6.4084 H   0  0  0  0  0
   39.3030  -39.5516    4.6864 H   0  0  0  0  0
   41.0664  -37.9184    3.8438 H   0  0  0  0  0
   44.2935  -28.9602    4.3450 H   0  0  0  0  0
   44.1594  -30.5714    5.1278 H   0  0  0  0  0
   43.0507  -29.2432    5.6106 H   0  0  0  0  0
   42.8256  -36.6334    3.8588 H   0  0  0  0  0
   43.5952  -36.3789    1.6526 H   0  0  0  0  0
   44.3520  -34.0986    1.0859 H   0  0  0  0  0
   44.7416  -34.5341    2.7845 H   0  0  0  0  0
   43.3626  -33.4383    2.4319 H   0  0  0  0  0
   41.2647  -34.5199    1.4014 H   0  0  0  0  0
   41.3334  -36.2637    0.9757 H   0  0  0  0  0
   42.8861  -35.7514   -0.8700 H   0  0  0  0  0
   42.8153  -34.0075   -0.4448 H   0  0  0  0  0
   40.3975  -34.1594   -0.3316 H   0  0  0  0  0
   40.4988  -35.8832   -0.8265 H   0  0  0  0  0
   38.9727  -34.1943   -3.4451 H   0  0  0  0  0
   38.8481  -33.8912   -1.6790 H   0  0  0  0  0
   40.9366  -36.3814   -3.3162 H   0  0  0  0  0
   42.4303  -35.3859   -3.2502 H   0  0  0  0  0
   37.4169  -35.8100   -2.3641 H   0  0  0  0  0
   38.7241  -36.3634   -1.2634 H   0  0  0  0  0
   38.8487  -36.6665   -3.0296 H   0  0  0  0  0
   41.4904  -35.4404   -5.5983 H   0  0  0  0  0
   41.4309  -33.7751   -4.9276 H   0  0  0  0  0
   39.9372  -34.7706   -4.9936 H   0  0  0  0  0
  1  2  4  0  0  0
  1  6  4  0  0  0
  1 16  1  0  0  0
  2  3  4  0  0  0
  3  4  4  0  0  0
  4  5  4  0  0  0
  4  7  4  0  0  0
  5  6  4  0  0  0
  5 10  4  0  0  0
  7  8  4  0  0  0
  8  9  4  0  0  0
  8 11  4  0  0  0
  9 10  4  0  0  0
  9 14  4  0  0  0
 10 18  1  0  0  0
 11 12  4  0  0  0
 12 13  4  0  0  0
 12 15  1  0  0  0
 13 14  4  0  0  0
 16 17  1  0  0  0
 18 19  1  0  0  0
 19 20  1  0  0  0
 19 21  1  0  0  0
 21 22  1  0  0  0
 22 23  1  0  0  0
 23 24  1  0  0  0
 24 25  1  0  0  0
 24 26  1  0  0  0
 25 27  1  0  0  0
 26 28  1  0  0  0
  2 29  1  0  0  0
  3 30  1  0  0  0
  6 31  1  0  0  0
 11 32  1  0  0  0
 13 33  1  0  0  0
 14 34  1  0  0  0
 17 35  1  0  0  0
 17 36  1  0  0  0
 17 37  1  0  0  0
 18 38  1  0  0  0
 19 39  1  0  0  0
 20 40  1  0  0  0
 20 41  1  0  0  0
 20 42  1  0  0  0
 21 43  1  0  0  0
 21 44  1  0  0  0
 22 45  1  0  0  0
 22 46  1  0  0  0
 23 47  1  0  0  0
 23 48  1  0  0  0
 25 49  1  0  0  0
 25 50  1  0  0  0
 26 51  1  0  0  0
 26 52  1  0  0  0
 27 53  1  0  0  0
 27 54  1  0  0  0
 27 55  1  0  0  0
 28 56  1  0  0  0
 28 57  1  0  0  0
 28 58  1  0  0  0
M  END
$$$$
