### 
### Created by X-TOOL on Mon Oct 24 23:18:19 2005
### 

@<TRIPOS>MOLECULE
1jqe_ligand
   58    60     1     0     0
SMALL
GAST_HUCK


@<TRIPOS>ATOM
      1 C1         41.6650  -31.1290    4.2750 C.ar      1 SUB1        0.093
      2 C2         40.4360  -30.7000    5.0250 C.ar      1 SUB1       -0.027
      3 C3         39.4220  -31.7070    5.4890 C.ar      1 SUB1       -0.051
      4 C4         39.6240  -33.1750    5.2080 C.ar      1 SUB1        0.012
      5 C5         40.9070  -33.6220    4.4270 C.ar      1 SUB1        0.027
      6 C6         41.8640  -32.5680    4.0010 C.ar      1 SUB1       -0.022
      7 N1         38.6510  -34.1250    5.6560 N.ar      1 SUB1       -0.342
      8 C7         38.8290  -35.5270    5.3920 C.ar      1 SUB1        0.015
      9 C8         40.0720  -36.0780    4.6280 C.ar      1 SUB1        0.034
     10 C9         41.1140  -35.1620    4.1350 C.ar      1 SUB1        0.091
     11 C10        37.8190  -36.5020    5.8680 C.ar      1 SUB1       -0.037
     12 C11        38.0080  -37.9840    5.5990 C.ar      1 SUB1        0.040
     13 C12        39.1880  -38.4890    4.8670 C.ar      1 SUB1       -0.047
     14 C13        40.2050  -37.5440    4.3850 C.ar      1 SUB1       -0.048
     15 CL         36.8820  -39.0590    6.1370 Cl        1 SUB1       -0.067
     16 O          42.6930  -30.0960    3.7940 O.3       1 SUB1       -0.323
     17 C14        43.5960  -29.6970    4.7700 C.3       1 SUB1        0.058
     18 N2         42.3760  -35.8550    3.3560 N.pl3     1 SUB1       -0.297
     19 C15        42.9940  -35.5190    1.9830 C.3       1 SUB1        0.042
     20 C16        43.9280  -34.3130    2.0780 C.3       1 SUB1       -0.041
     21 C17        41.9070  -35.3260    1.0170 C.3       1 SUB1       -0.028
     22 C18        42.2820  -34.9680   -0.3890 C.3       1 SUB1       -0.038
     23 C19        40.9470  -34.8860   -0.9480 C.3       1 SUB1       -0.001
     24 N3         40.7170  -34.4950   -2.3570 N.3       1 SUB1       -0.303
     25 C20        39.2470  -34.5690   -2.4480 C.3       1 SUB1       -0.004
     26 C21        41.3410  -35.3620   -3.4010 C.3       1 SUB1       -0.004
     27 C22        38.5020  -35.9590   -2.2620 C.3       1 SUB1       -0.052
     28 C23        41.0260  -34.7940   -4.8390 C.3       1 SUB1       -0.052
     29 H21        40.2784  -29.6482    5.2345 H         1 SUB1        0.063
     30 H31        38.5414  -31.3770    6.0281 H         1 SUB1        0.058
     31 H61        42.7543  -32.8700    3.4613 H         1 SUB1        0.054
     32 H111       36.9451  -36.1566    6.4084 H         1 SUB1        0.059
     33 H131       39.3030  -39.5516    4.6864 H         1 SUB1        0.058
     34 H141       41.0664  -37.9184    3.8438 H         1 SUB1        0.067
     35 H171       44.2935  -28.9602    4.3450 H         1 SUB1        0.058
     36 H172       44.1594  -30.5714    5.1278 H         1 SUB1        0.058
     37 H173       43.0507  -29.2432    5.6106 H         1 SUB1        0.058
     38 H181       42.8256  -36.6334    3.8588 H         1 SUB1        0.193
     39 H191       43.5952  -36.3789    1.6526 H         1 SUB1        0.057
     40 H201       44.3520  -34.0986    1.0859 H         1 SUB1        0.025
     41 H202       44.7416  -34.5341    2.7845 H         1 SUB1        0.025
     42 H203       43.3626  -33.4383    2.4319 H         1 SUB1        0.025
     43 H211       41.2647  -34.5199    1.4014 H         1 SUB1        0.029
     44 H212       41.3334  -36.2637    0.9757 H         1 SUB1        0.029
     45 H221       42.8861  -35.7514   -0.8700 H         1 SUB1        0.028
     46 H222       42.8153  -34.0075   -0.4448 H         1 SUB1        0.028
     47 H231       40.3975  -34.1594   -0.3316 H         1 SUB1        0.043
     48 H232       40.4988  -35.8832   -0.8265 H         1 SUB1        0.043
     49 H251       38.9727  -34.1943   -3.4451 H         1 SUB1        0.042
     50 H252       38.8481  -33.8912   -1.6790 H         1 SUB1        0.042
     51 H261       40.9366  -36.3814   -3.3162 H         1 SUB1        0.042
     52 H262       42.4303  -35.3859   -3.2502 H         1 SUB1        0.042
     53 H271       37.4169  -35.8100   -2.3641 H         1 SUB1        0.024
     54 H272       38.7241  -36.3634   -1.2634 H         1 SUB1        0.024
     55 H273       38.8487  -36.6665   -3.0296 H         1 SUB1        0.024
     56 H281       41.4904  -35.4404   -5.5983 H         1 SUB1        0.024
     57 H282       41.4309  -33.7751   -4.9276 H         1 SUB1        0.024
     58 H283       39.9372  -34.7706   -4.9936 H         1 SUB1        0.024
@<TRIPOS>BOND
     1    1    2 ar 
     2    1    6 ar 
     3    1   16 1  
     4    2    3 ar 
     5    3    4 ar 
     6    4    5 ar 
     7    4    7 ar 
     8    5    6 ar 
     9    5   10 ar 
    10    7    8 ar 
    11    8    9 ar 
    12    8   11 ar 
    13    9   10 ar 
    14    9   14 ar 
    15   10   18 1  
    16   11   12 ar 
    17   12   13 ar 
    18   12   15 1  
    19   13   14 ar 
    20   16   17 1  
    21   18   19 1  
    22   19   20 1  
    23   19   21 1  
    24   21   22 1  
    25   22   23 1  
    26   23   24 1  
    27   24   25 1  
    28   24   26 1  
    29   25   27 1  
    30   26   28 1  
    31    2   29 1  
    32    3   30 1  
    33    6   31 1  
    34   11   32 1  
    35   13   33 1  
    36   14   34 1  
    37   17   35 1  
    38   17   36 1  
    39   17   37 1  
    40   18   38 1  
    41   19   39 1  
    42   20   40 1  
    43   20   41 1  
    44   20   42 1  
    45   21   43 1  
    46   21   44 1  
    47   22   45 1  
    48   22   46 1  
    49   23   47 1  
    50   23   48 1  
    51   25   49 1  
    52   25   50 1  
    53   26   51 1  
    54   26   52 1  
    55   27   53 1  
    56   27   54 1  
    57   27   55 1  
    58   28   56 1  
    59   28   57 1  
    60   28   58 1  
@<TRIPOS>SUBSTRUCTURE
     1 SUB1        1 GROUP

