### 
### Created by X-TOOL on Tue Oct 25 01:26:42 2005
### 

@<TRIPOS>MOLECULE
1b40_ligand
   67    67     1     0     0
SMALL
GAST_HUCK


@<TRIPOS>ATOM
      1 N           6.9560   16.5790   15.1480 N.4       1 SUB1        0.238
      2 CA          6.5760   17.9380   14.6390 C.3       1 SUB1        0.065
      3 C           5.3270   18.4650   15.3500 C.2       1 SUB1        0.227
      4 O           4.4760   17.6870   15.8460 O.2       1 SUB1       -0.391
      5 CB          6.3520   17.8970   13.1250 C.3       1 SUB1        0.008
      6 CG          5.4560   16.7990   12.6030 C.3       1 SUB1       -0.041
      7 CD          5.2730   16.8330   11.0980 C.3       1 SUB1       -0.012
      8 CE          6.4560   16.2780   10.3050 C.3       1 SUB1       -0.035
      9 NZ          6.7210   14.8680   10.7620 N.4       1 SUB1        0.219
     10 N           5.2000   19.7800   15.4660 N.am      1 SUB1       -0.259
     11 CA          4.0710   20.3970   16.1250 C.3       1 SUB1        0.141
     12 C           2.7630   20.2960   15.3130 C.2       1 SUB1        0.207
     13 O           2.7880   20.6020   14.1150 O.2       1 SUB1       -0.394
     14 CB          4.3790   21.8900   16.3530 C.3       1 SUB1        0.021
     15 CG          5.4870   22.1170   17.3760 C.ar      1 SUB1       -0.039
     16 CD1         6.8160   21.9900   17.0010 C.ar      1 SUB1       -0.060
     17 CD2         5.1730   22.4340   18.6650 C.ar      1 SUB1       -0.060
     18 CE1         7.8090   22.2020   17.9270 C.ar      1 SUB1       -0.069
     19 CE2         6.1840   22.6350   19.6000 C.ar      1 SUB1       -0.069
     20 CZ          7.5210   22.5190   19.2480 C.ar      1 SUB1       -0.069
     21 N           1.6540   19.9130   15.9560 N.am      1 SUB1       -0.268
     22 CA          0.3810   19.8730   15.2810 C.3       1 SUB1        0.081
     23 C          -0.6880   20.6340   16.0880 C.2       1 SUB1        0.053
     24 O          -1.7850   20.8460   15.5250 O.co2     1 SUB1       -0.564
     25 CB         -0.1240   18.4180   15.1220 C.3       1 SUB1       -0.018
     26 CG         -1.1290   18.3540   13.9710 C.3       1 SUB1       -0.043
     27 CD         -2.2490   17.3730   14.2250 C.3       1 SUB1       -0.012
     28 CE         -3.3240   17.3910   13.1230 C.3       1 SUB1       -0.035
     29 NZ         -2.7190   16.9480   11.8380 N.4       1 SUB1        0.219
     30 O1         -0.4670   21.0262   17.2648 O.co2     1 SUB1       -0.564
     31 H11         6.3319   16.3128   15.8934 H         1 SUB1        0.201
     32 H21         7.4069   18.6280   14.8477 H         1 SUB1        0.110
     33 H51         7.3351   17.7816   12.6453 H         1 SUB1        0.035
     34 H52         5.9093   18.8589   12.8270 H         1 SUB1        0.035
     35 H61         4.4683   16.9008   13.0763 H         1 SUB1        0.027
     36 H62         5.8964   15.8294   12.8786 H         1 SUB1        0.027
     37 H71         5.1154   17.8784   10.7942 H         1 SUB1        0.032
     38 H72         4.3815   16.2397   10.8464 H         1 SUB1        0.032
     39 H81         7.3461   16.8990   10.4838 H         1 SUB1        0.081
     40 H82         6.2166   16.2809    9.2314 H         1 SUB1        0.081
     41 H91         6.9472   14.8701   11.7443 H         1 SUB1        0.199
     42 H92         7.4938   14.4853   10.2401 H         1 SUB1        0.199
     43 H93         5.8995   14.3047   10.6075 H         1 SUB1        0.199
     44 H101        5.9128   20.3674   15.0828 H         1 SUB1        0.189
     45 H111        3.9209   19.9012   17.0954 H         1 SUB1        0.082
     46 H141        3.4647   22.3867   16.7097 H         1 SUB1        0.047
     47 H142        4.6883   22.3349   15.3957 H         1 SUB1        0.047
     48 H161        7.0706   21.7245   15.9813 H         1 SUB1        0.056
     49 H171        4.1347   22.5295   18.9614 H         1 SUB1        0.056
     50 H181        8.8448   22.1196   17.6180 H         1 SUB1        0.060
     51 H191        5.9222   22.8866   20.6214 H         1 SUB1        0.060
     52 H201        8.3101   22.6699   19.9758 H         1 SUB1        0.056
     53 H211        1.7091   19.6505   16.9194 H         1 SUB1        0.190
     54 H221        0.4920   20.3340   14.2884 H         1 SUB1        0.078
     55 H251       -0.6114   18.0944   16.0535 H         1 SUB1        0.032
     56 H252        0.7267   17.7556   14.9041 H         1 SUB1        0.032
     57 H261       -0.5974   18.0512   13.0568 H         1 SUB1        0.027
     58 H262       -1.5637   19.3543   13.8281 H         1 SUB1        0.027
     59 H271       -2.7254   17.6251   15.1839 H         1 SUB1        0.032
     60 H272       -1.8224   16.3607   14.2825 H         1 SUB1        0.032
     61 H281       -3.7181   18.4118   13.0108 H         1 SUB1        0.081
     62 H282       -4.1430   16.7100   13.3975 H         1 SUB1        0.081
     63 H291       -1.9747   17.5778   11.5823 H         1 SUB1        0.199
     64 H292       -3.4232   16.9498   11.1168 H         1 SUB1        0.199
     65 H293       -2.3493   16.0163   11.9442 H         1 SUB1        0.199
     66 H12         7.9023   16.6024   15.4944 H         1 SUB1        0.201
     67 H13         6.8891   15.9086   14.3983 H         1 SUB1        0.201
@<TRIPOS>BOND
     1    2    1 1  
     2    2    5 1  
     3    3    2 1  
     4    3    4 2  
     5    5    6 1  
     6    6    7 1  
     7    7    8 1  
     8    8    9 1  
     9   11   10 1  
    10   11   14 1  
    11   12   11 1  
    12   12   13 2  
    13   14   15 1  
    14   15   16 ar 
    15   15   17 ar 
    16   17   19 ar 
    17   19   20 ar 
    18   18   20 ar 
    19   16   18 ar 
    20   10    3 am 
    21   21   22 1  
    22   22   25 1  
    23   22   23 1  
    24   23   24 2  
    25   25   26 1  
    26   26   27 1  
    27   27   28 1  
    28   28   29 1  
    29   12   21 am 
    30   23   30 2  
    31    1   31 1  
    32    2   32 1  
    33    5   33 1  
    34    5   34 1  
    35    6   35 1  
    36    6   36 1  
    37    7   37 1  
    38    7   38 1  
    39    8   39 1  
    40    8   40 1  
    41    9   41 1  
    42    9   42 1  
    43    9   43 1  
    44   10   44 1  
    45   11   45 1  
    46   14   46 1  
    47   14   47 1  
    48   16   48 1  
    49   17   49 1  
    50   18   50 1  
    51   19   51 1  
    52   20   52 1  
    53   21   53 1  
    54   22   54 1  
    55   25   55 1  
    56   25   56 1  
    57   26   57 1  
    58   26   58 1  
    59   27   59 1  
    60   27   60 1  
    61   28   61 1  
    62   28   62 1  
    63   29   63 1  
    64   29   64 1  
    65   29   65 1  
    66    1   66 1  
    67    1   67 1  
@<TRIPOS>SUBSTRUCTURE
     1 SUB1        1 GROUP

