1b40_ligand
  -I-interpret- 

 67 67  0  0  0  0  0  0  0  0999 V2000
    6.9560   16.5790   15.1480 N   0  3  0  0  0
    6.5760   17.9380   14.6390 C   0  0  0  0  0
    5.3270   18.4650   15.3500 C   0  0  0  0  0
    4.4760   17.6870   15.8460 O   0  0  0  0  0
    6.3520   17.8970   13.1250 C   0  0  0  0  0
    5.4560   16.7990   12.6030 C   0  0  0  0  0
    5.2730   16.8330   11.0980 C   0  0  0  0  0
    6.4560   16.2780   10.3050 C   0  0  0  0  0
    6.7210   14.8680   10.7620 N   0  3  0  0  0
    5.2000   19.7800   15.4660 N   0  0  0  0  0
    4.0710   20.3970   16.1250 C   0  0  0  0  0
    2.7630   20.2960   15.3130 C   0  0  0  0  0
    2.7880   20.6020   14.1150 O   0  0  0  0  0
    4.3790   21.8900   16.3530 C   0  0  0  0  0
    5.4870   22.1170   17.3760 C   0  0  0  0  0
    6.8160   21.9900   17.0010 C   0  0  0  0  0
    5.1730   22.4340   18.6650 C   0  0  0  0  0
    7.8090   22.2020   17.9270 C   0  0  0  0  0
    6.1840   22.6350   19.6000 C   0  0  0  0  0
    7.5210   22.5190   19.2480 C   0  0  0  0  0
    1.6540   19.9130   15.9560 N   0  0  0  0  0
    0.3810   19.8730   15.2810 C   0  0  0  0  0
   -0.6880   20.6340   16.0880 C   0  0  0  0  0
   -1.7850   20.8460   15.5250 O   0  0  0  0  0
   -0.1240   18.4180   15.1220 C   0  0  0  0  0
   -1.1290   18.3540   13.9710 C   0  0  0  0  0
   -2.2490   17.3730   14.2250 C   0  0  0  0  0
   -3.3240   17.3910   13.1230 C   0  0  0  0  0
   -2.7190   16.9480   11.8380 N   0  3  0  0  0
   -0.4670   21.0262   17.2648 O   0  5  0  0  0
    6.3319   16.3128   15.8934 H   0  0  0  0  0
    7.4069   18.6280   14.8477 H   0  0  0  0  0
    7.3351   17.7816   12.6453 H   0  0  0  0  0
    5.9093   18.8589   12.8270 H   0  0  0  0  0
    4.4683   16.9008   13.0763 H   0  0  0  0  0
    5.8964   15.8294   12.8786 H   0  0  0  0  0
    5.1154   17.8784   10.7942 H   0  0  0  0  0
    4.3815   16.2397   10.8464 H   0  0  0  0  0
    7.3461   16.8990   10.4838 H   0  0  0  0  0
    6.2166   16.2809    9.2314 H   0  0  0  0  0
    6.9472   14.8701   11.7443 H   0  0  0  0  0
    7.4938   14.4853   10.2401 H   0  0  0  0  0
    5.8995   14.3047   10.6075 H   0  0  0  0  0
    5.9128   20.3674   15.0828 H   0  0  0  0  0
    3.9209   19.9012   17.0954 H   0  0  0  0  0
    3.4647   22.3867   16.7097 H   0  0  0  0  0
    4.6883   22.3349   15.3957 H   0  0  0  0  0
    7.0706   21.7245   15.9813 H   0  0  0  0  0
    4.1347   22.5295   18.9614 H   0  0  0  0  0
    8.8448   22.1196   17.6180 H   0  0  0  0  0
    5.9222   22.8866   20.6214 H   0  0  0  0  0
    8.3101   22.6699   19.9758 H   0  0  0  0  0
    1.7091   19.6505   16.9194 H   0  0  0  0  0
    0.4920   20.3340   14.2884 H   0  0  0  0  0
   -0.6114   18.0944   16.0535 H   0  0  0  0  0
    0.7267   17.7556   14.9041 H   0  0  0  0  0
   -0.5974   18.0512   13.0568 H   0  0  0  0  0
   -1.5637   19.3543   13.8281 H   0  0  0  0  0
   -2.7254   17.6251   15.1839 H   0  0  0  0  0
   -1.8224   16.3607   14.2825 H   0  0  0  0  0
   -3.7181   18.4118   13.0108 H   0  0  0  0  0
   -4.1430   16.7100   13.3975 H   0  0  0  0  0
   -1.9747   17.5778   11.5823 H   0  0  0  0  0
   -3.4232   16.9498   11.1168 H   0  0  0  0  0
   -2.3493   16.0163   11.9442 H   0  0  0  0  0
    7.9023   16.6024   15.4944 H   0  0  0  0  0
    6.8891   15.9086   14.3983 H   0  0  0  0  0
  2  1  1  0  0  0
  2  5  1  0  0  0
  3  2  1  0  0  0
  3  4  2  0  0  0
  5  6  1  0  0  0
  6  7  1  0  0  0
  7  8  1  0  0  0
  8  9  1  0  0  0
 11 10  1  0  0  0
 11 14  1  0  0  0
 12 11  1  0  0  0
 12 13  2  0  0  0
 14 15  1  0  0  0
 15 16  4  0  0  0
 15 17  4  0  0  0
 17 19  4  0  0  0
 19 20  4  0  0  0
 18 20  4  0  0  0
 16 18  4  0  0  0
 10  3  1  0  0  0
 21 22  1  0  0  0
 22 25  1  0  0  0
 22 23  1  0  0  0
 23 24  2  0  0  0
 25 26  1  0  0  0
 26 27  1  0  0  0
 27 28  1  0  0  0
 28 29  1  0  0  0
 12 21  1  0  0  0
 23 30  1  0  0  0
  1 31  1  0  0  0
  2 32  1  0  0  0
  5 33  1  0  0  0
  5 34  1  0  0  0
  6 35  1  0  0  0
  6 36  1  0  0  0
  7 37  1  0  0  0
  7 38  1  0  0  0
  8 39  1  0  0  0
  8 40  1  0  0  0
  9 41  1  0  0  0
  9 42  1  0  0  0
  9 43  1  0  0  0
 10 44  1  0  0  0
 11 45  1  0  0  0
 14 46  1  0  0  0
 14 47  1  0  0  0
 16 48  1  0  0  0
 17 49  1  0  0  0
 18 50  1  0  0  0
 19 51  1  0  0  0
 20 52  1  0  0  0
 21 53  1  0  0  0
 22 54  1  0  0  0
 25 55  1  0  0  0
 25 56  1  0  0  0
 26 57  1  0  0  0
 26 58  1  0  0  0
 27 59  1  0  0  0
 27 60  1  0  0  0
 28 61  1  0  0  0
 28 62  1  0  0  0
 29 63  1  0  0  0
 29 64  1  0  0  0
 29 65  1  0  0  0
  1 66  1  0  0  0
  1 67  1  0  0  0
M  END
$$$$
