2j2u_ligand
  -I-interpret- 

 53 56  0  0  0  0  0  0  0  0999 V2000
   13.9850    7.5280   26.1870 Cl  0  0  0  0  0
   12.2480    7.6990   26.1510 C   0  0  0  0  0
   11.4930    7.1820   27.2330 C   0  0  0  0  0
   10.0900    7.2970   27.1870 C   0  0  0  0  0
    9.4790    7.9410   26.0830 C   0  0  0  0  0
    8.1520    8.1990   25.7840 N   0  0  0  0  0
   10.2540    8.4820   24.9880 C   0  0  0  0  0
   11.6420    8.3570   25.0530 C   0  0  0  0  0
    9.3720    9.0700   24.0370 C   0  0  0  0  0
    8.1090    8.8410   24.5920 C   0  0  0  0  0
    6.5310    9.2820   24.0070 S   0  0  0  0  0
    5.6650    9.1730   25.1390 O   0  0  0  0  0
    6.6080   10.5090   23.2790 O   0  0  0  0  0
    6.0030    8.2680   22.8500 N   0  0  0  0  0
    6.1900    6.8190   22.8420 C   0  0  0  0  0
    7.0710    6.2480   21.7330 C   0  0  0  0  0
    8.1360    6.7260   21.3350 O   0  0  0  0  0
    4.8490    6.0750   22.7180 C   0  0  0  0  0
    5.0510    5.0650   21.5780 C   0  0  0  0  0
    6.4880    5.1170   21.2860 N   0  0  0  0  0
    7.2540    4.0430   20.6140 C   0  0  0  0  0
    6.9970    2.7010   21.3190 C   0  0  0  0  0
    7.0000    3.8700   19.1120 C   0  0  0  0  0
    5.8610    4.0100   18.6740 O   0  0  0  0  0
    8.0520    3.5530   18.2950 N   0  0  0  0  0
    9.2600    2.7890   18.6630 C   0  0  0  0  0
    9.6150    1.6910   17.6480 C   0  0  0  0  0
    9.6060    2.2560   16.3370 O   0  0  0  0  0
    8.3310    2.7880   15.9710 C   0  0  0  0  0
    8.0200    3.9780   16.8890 C   0  0  0  0  0
   11.9863    6.7066   28.0808 H   0  0  0  0  0
    9.4791    6.8936   27.9946 H   0  0  0  0  0
    7.3481    7.9495   26.3600 H   0  0  0  0  0
   12.2622    8.7672   24.2560 H   0  0  0  0  0
    9.6208    9.5754   23.1038 H   0  0  0  0  0
    5.4989    8.6782   22.0639 H   0  0  0  0  0
    6.6930    6.6592   23.7957 H   0  0  0  0  0
    4.0277    6.7599   22.5069 H   0  0  0  0  0
    4.5769    5.5796   23.6500 H   0  0  0  0  0
    4.4488    5.3122   20.7037 H   0  0  0  0  0
    4.7290    4.0627   21.8604 H   0  0  0  0  0
    8.2933    4.3611   20.6962 H   0  0  0  0  0
    7.3125    2.7726   22.3599 H   0  0  0  0  0
    5.9333    2.4672   21.2757 H   0  0  0  0  0
    7.5636    1.9152   20.8194 H   0  0  0  0  0
    9.0652    2.3039   19.6195 H   0  0  0  0  0
   10.0951    3.4886   18.6982 H   0  0  0  0  0
    8.8853    0.8834   17.7072 H   0  0  0  0  0
   10.6033    1.2884   17.8699 H   0  0  0  0  0
    7.5626    2.0226   16.0799 H   0  0  0  0  0
    8.3478    3.1140   14.9310 H   0  0  0  0  0
    8.7683    4.7551   16.7331 H   0  0  0  0  0
    7.0271    4.3613   16.6537 H   0  0  0  0  0
  1  2  1  0  0  0
  2  3  4  0  0  0
  2  8  4  0  0  0
  3  4  4  0  0  0
  4  5  4  0  0  0
  5  6  1  0  0  0
  5  7  4  0  0  0
  6 10  1  0  0  0
  7  8  4  0  0  0
  7  9  1  0  0  0
  9 10  2  0  0  0
 10 11  1  0  0  0
 11 12  2  0  0  0
 11 13  2  0  0  0
 11 14  1  0  0  0
 14 15  1  0  0  0
 15 16  1  0  0  0
 15 18  1  0  0  0
 16 17  2  0  0  0
 16 20  1  0  0  0
 18 19  1  0  0  0
 19 20  1  0  0  0
 20 21  1  0  0  0
 21 22  1  0  0  0
 21 23  1  0  0  0
 23 24  2  0  0  0
 23 25  1  0  0  0
 25 26  1  0  0  0
 25 30  1  0  0  0
 26 27  1  0  0  0
 27 28  1  0  0  0
 28 29  1  0  0  0
 29 30  1  0  0  0
  3 31  1  0  0  0
  4 32  1  0  0  0
  6 33  1  0  0  0
  8 34  1  0  0  0
  9 35  1  0  0  0
 14 36  1  0  0  0
 15 37  1  0  0  0
 18 38  1  0  0  0
 18 39  1  0  0  0
 19 40  1  0  0  0
 19 41  1  0  0  0
 21 42  1  0  0  0
 22 43  1  0  0  0
 22 44  1  0  0  0
 22 45  1  0  0  0
 26 46  1  0  0  0
 26 47  1  0  0  0
 27 48  1  0  0  0
 27 49  1  0  0  0
 29 50  1  0  0  0
 29 51  1  0  0  0
 30 52  1  0  0  0
 30 53  1  0  0  0
M  END
$$$$
