### 
### Created by X-TOOL on Sun Jun  3 11:31:38 2007
### 

@<TRIPOS>MOLECULE
2j2u_ligand
   53    56     1     0     0
SMALL
GAST_HUCK


@<TRIPOS>ATOM
      1 CL         13.9850    7.5280   26.1870 Cl        1 SUB1       -0.082
      2 C13        12.2480    7.6990   26.1510 C.ar      1 SUB1        0.023
      3 C14        11.4930    7.1820   27.2330 C.ar      1 SUB1       -0.062
      4 C11        10.0900    7.2970   27.1870 C.ar      1 SUB1       -0.043
      5 C6          9.4790    7.9410   26.0830 C.ar      1 SUB1        0.065
      6 N1          8.1520    8.1990   25.7840 N.pl3     1 SUB1       -0.257
      7 C5         10.2540    8.4820   24.9880 C.ar      1 SUB1       -0.025
      8 C10        11.6420    8.3570   25.0530 C.ar      1 SUB1       -0.061
      9 C2          9.3720    9.0700   24.0370 C.2       1 SUB1       -0.036
     10 C1          8.1090    8.8410   24.5920 C.2       1 SUB1        0.194
     11 S4          6.5310    9.2820   24.0070 S.o2      1 SUB1        0.094
     12 O8          5.6650    9.1730   25.1390 O.2       1 SUB1       -0.147
     13 O9          6.6080   10.5090   23.2790 O.2       1 SUB1       -0.147
     14 N7          6.0030    8.2680   22.8500 N.am      1 SUB1       -0.223
     15 C12         6.1900    6.8190   22.8420 C.3       1 SUB1        0.129
     16 C15         7.0710    6.2480   21.7330 C.2       1 SUB1        0.203
     17 O19         8.1360    6.7260   21.3350 O.2       1 SUB1       -0.395
     18 C16         4.8490    6.0750   22.7180 C.3       1 SUB1        0.005
     19 C20         5.0510    5.0650   21.5780 C.3       1 SUB1        0.041
     20 N18         6.4880    5.1170   21.2860 N.am      1 SUB1       -0.250
     21 C21         7.2540    4.0430   20.6140 C.3       1 SUB1        0.131
     22 C23         6.9970    2.7010   21.3190 C.3       1 SUB1       -0.024
     23 C22         7.0000    3.8700   19.1120 C.2       1 SUB1        0.204
     24 O25         5.8610    4.0100   18.6740 O.2       1 SUB1       -0.394
     25 N24         8.0520    3.5530   18.2950 N.am      1 SUB1       -0.267
     26 C26         9.2600    2.7890   18.6630 C.3       1 SUB1        0.057
     27 C28         9.6150    1.6910   17.6480 C.3       1 SUB1        0.068
     28 O30         9.6060    2.2560   16.3370 O.3       1 SUB1       -0.376
     29 C29         8.3310    2.7880   15.9710 C.3       1 SUB1        0.068
     30 C27         8.0200    3.9780   16.8890 C.3       1 SUB1        0.057
     31 H          11.9863    6.7066   28.0808 H         1 SUB1        0.054
     32 H           9.4791    6.8936   27.9946 H         1 SUB1        0.054
     33 H           7.3481    7.9495   26.3600 H         1 SUB1        0.229
     34 H          12.2622    8.7672   24.2560 H         1 SUB1        0.054
     35 H           9.6208    9.5754   23.1038 H         1 SUB1        0.031
     36 H           5.4989    8.6782   22.0639 H         1 SUB1        0.171
     37 H           6.6930    6.6592   23.7957 H         1 SUB1        0.075
     38 H           4.0277    6.7599   22.5069 H         1 SUB1        0.033
     39 H           4.5769    5.5796   23.6500 H         1 SUB1        0.033
     40 H           4.4488    5.3122   20.7037 H         1 SUB1        0.053
     41 H           4.7290    4.0627   21.8604 H         1 SUB1        0.053
     42 H           8.2933    4.3611   20.6962 H         1 SUB1        0.080
     43 H           7.3125    2.7726   22.3599 H         1 SUB1        0.028
     44 H           5.9333    2.4672   21.2757 H         1 SUB1        0.028
     45 H           7.5636    1.9152   20.8194 H         1 SUB1        0.028
     46 H           9.0652    2.3039   19.6195 H         1 SUB1        0.054
     47 H          10.0951    3.4886   18.6982 H         1 SUB1        0.054
     48 H           8.8853    0.8834   17.7072 H         1 SUB1        0.058
     49 H          10.6033    1.2884   17.8699 H         1 SUB1        0.058
     50 H           7.5626    2.0226   16.0799 H         1 SUB1        0.058
     51 H           8.3478    3.1140   14.9310 H         1 SUB1        0.058
     52 H           8.7683    4.7551   16.7331 H         1 SUB1        0.054
     53 H           7.0271    4.3613   16.6537 H         1 SUB1        0.054
@<TRIPOS>BOND
     1    1    2 1  
     2    2    3 ar 
     3    2    8 ar 
     4    3    4 ar 
     5    4    5 ar 
     6    5    6 1  
     7    5    7 ar 
     8    6   10 1  
     9    7    8 ar 
    10    7    9 1  
    11    9   10 2  
    12   10   11 1  
    13   11   12 2  
    14   11   13 2  
    15   11   14 1  
    16   14   15 1  
    17   15   16 1  
    18   15   18 1  
    19   16   17 2  
    20   16   20 am 
    21   18   19 1  
    22   19   20 1  
    23   20   21 1  
    24   21   22 1  
    25   21   23 1  
    26   23   24 2  
    27   23   25 am 
    28   25   26 1  
    29   25   30 1  
    30   26   27 1  
    31   27   28 1  
    32   28   29 1  
    33   29   30 1  
    34    3   31 1  
    35    4   32 1  
    36    6   33 1  
    37    8   34 1  
    38    9   35 1  
    39   14   36 1  
    40   15   37 1  
    41   18   38 1  
    42   18   39 1  
    43   19   40 1  
    44   19   41 1  
    45   21   42 1  
    46   22   43 1  
    47   22   44 1  
    48   22   45 1  
    49   26   46 1  
    50   26   47 1  
    51   27   48 1  
    52   27   49 1  
    53   29   50 1  
    54   29   51 1  
    55   30   52 1  
    56   30   53 1  
@<TRIPOS>SUBSTRUCTURE
     1 SUB1        1 GROUP

