1uxa_ligand
  -I-interpret- 

 60 61  0  0  0  0  0  0  0  0999 V2000
   45.6100   53.3010   66.3770 C   0  0  0  0  0
   46.5790   52.9010   65.2170 C   0  0  0  0  0
   46.6810   51.3810   65.1080 C   0  0  0  0  0
   45.4200   50.7190   64.5000 C   0  0  0  0  0
   45.0050   51.4340   63.1900 C   0  0  0  0  0
   44.8610   52.9260   63.5110 C   0  0  0  0  0
   44.4710   53.7230   62.2760 C   0  0  0  0  0
   44.4580   55.2140   62.6210 C   0  0  0  0  0
   43.7460   55.9860   61.5300 C   0  0  0  0  0
   43.5570   50.1530   61.6940 C   0  0  0  0  0
   42.0640   49.8570   61.3800 C   0  0  0  0  0
   43.7200   50.8590   62.7980 N   0  0  0  0  0
   45.6500   52.6590   67.4510 O   0  5  0  0  0
   44.8290   54.2710   66.2550 O   0  0  0  0  0
   45.6910   49.3630   64.2410 O   0  0  0  0  0
   46.1270   53.4530   63.9800 O   0  0  0  0  0
   45.4470   53.4930   61.2680 O   0  0  0  0  0
   43.8060   55.4410   63.8610 O   0  0  0  0  0
   44.0250   57.3710   61.6750 O   0  0  0  0  0
   44.4740   49.8260   60.8760 O   0  0  0  0  0
   49.3320   56.8000   64.7540 C   0  0  0  0  0
   49.1250   55.3100   64.5780 C   0  0  0  0  0
   47.9640   54.8520   65.4830 C   0  0  0  0  0
   48.2180   55.2650   66.9130 C   0  0  0  0  0
   48.5120   56.7700   66.9720 C   0  0  0  0  0
   48.8200   57.3100   68.3460 C   0  0  0  0  0
   50.3790   57.2390   63.9550 O   0  0  0  0  0
   48.8370   55.0500   63.2260 O   0  0  0  0  0
   47.8560   53.4160   65.4430 O   0  0  0  0  0
   49.3370   54.5210   67.3700 O   0  0  0  0  0
   49.6360   57.0740   66.1250 O   0  0  0  0  0
   48.8390   58.7300   68.3220 O   0  0  0  0  0
   46.8385   50.9695   66.1159 H   0  0  0  0  0
   47.5442   51.1347   64.4723 H   0  0  0  0  0
   44.5933   50.7909   65.2221 H   0  0  0  0  0
   45.7534   51.2832   62.3981 H   0  0  0  0  0
   44.0930   53.0529   64.2882 H   0  0  0  0  0
   43.4779   53.4098   61.9215 H   0  0  0  0  0
   45.4963   55.5698   62.6947 H   0  0  0  0  0
   42.6616   55.8195   61.6101 H   0  0  0  0  0
   44.0983   55.6415   60.5465 H   0  0  0  0  0
   41.9939   49.2687   60.4532 H   0  0  0  0  0
   41.5207   50.8052   61.2543 H   0  0  0  0  0
   41.6206   49.2875   62.2101 H   0  0  0  0  0
   42.9292   51.0067   63.3920 H   0  0  0  0  0
   45.9446   48.9320   65.0488 H   0  0  0  0  0
   46.3011   53.7565   61.5898 H   0  0  0  0  0
   44.2525   54.9568   64.5456 H   0  0  0  0  0
   43.7205   57.6670   62.5249 H   0  0  0  0  0
   48.4114   57.3306   64.4694 H   0  0  0  0  0
   50.0413   54.7729   64.8643 H   0  0  0  0  0
   47.0263   55.3052   65.1290 H   0  0  0  0  0
   47.3385   55.0393   67.5339 H   0  0  0  0  0
   47.6237   57.2964   66.5928 H   0  0  0  0  0
   49.8034   56.9389   68.6702 H   0  0  0  0  0
   48.0484   56.9689   69.0519 H   0  0  0  0  0
   50.1784   57.0577   63.0442 H   0  0  0  0  0
   49.5639   55.3394   62.6872 H   0  0  0  0  0
   49.1379   53.5930   67.3268 H   0  0  0  0  0
   49.5061   59.0264   67.7141 H   0  0  0  0  0
  2  1  1  0  0  0
  1 13  1  0  0  0
  1 14  2  0  0  0
  2  3  1  0  0  0
  2 16  1  0  0  0
 29  2  1  0  0  0
  3  4  1  0  0  0
  4  5  1  0  0  0
  4 15  1  0  0  0
  6  5  1  0  0  0
  5 12  1  0  0  0
  6  7  1  0  0  0
 16  6  1  0  0  0
  7  8  1  0  0  0
  7 17  1  0  0  0
  8  9  1  0  0  0
  8 18  1  0  0  0
  9 19  1  0  0  0
 10 11  1  0  0  0
 12 10  1  0  0  0
 10 20  2  0  0  0
 22 21  1  0  0  0
 21 27  1  0  0  0
 21 31  1  0  0  0
 23 22  1  0  0  0
 22 28  1  0  0  0
 23 24  1  0  0  0
 23 29  1  0  0  0
 24 25  1  0  0  0
 24 30  1  0  0  0
 25 26  1  0  0  0
 25 31  1  0  0  0
 26 32  1  0  0  0
  3 33  1  0  0  0
  3 34  1  0  0  0
  4 35  1  0  0  0
  5 36  1  0  0  0
  6 37  1  0  0  0
  7 38  1  0  0  0
  8 39  1  0  0  0
  9 40  1  0  0  0
  9 41  1  0  0  0
 11 42  1  0  0  0
 11 43  1  0  0  0
 11 44  1  0  0  0
 12 45  1  0  0  0
 15 46  1  0  0  0
 17 47  1  0  0  0
 18 48  1  0  0  0
 19 49  1  0  0  0
 21 50  1  0  0  0
 22 51  1  0  0  0
 23 52  1  0  0  0
 24 53  1  0  0  0
 25 54  1  0  0  0
 26 55  1  0  0  0
 26 56  1  0  0  0
 27 57  1  0  0  0
 28 58  1  0  0  0
 30 59  1  0  0  0
 32 60  1  0  0  0
M  END
$$$$
