1k1l_ligand
  -I-interpret- 

 62 65  0  0  0  0  0  0  0  0999 V2000
   -4.8495    7.1777   20.3830 H   0  0  0  0  0
   -1.4516    4.5770   19.8832 H   0  0  0  0  0
   -0.0907    6.4962   19.0938 H   0  0  0  0  0
   -1.1160    8.7613   18.9229 H   0  0  0  0  0
   -3.4092   11.4252   19.0698 H   0  0  0  0  0
   -3.2450    5.7480   20.2080 C   0  0  0  0  0
   -3.8130    7.0280   20.1030 C   0  0  0  0  0
   -1.8960    5.5640   19.8250 C   0  0  0  0  0
   -1.1280    6.6450   19.3710 C   0  0  0  0  0
   -1.7070    7.9240   19.2760 C   0  0  0  0  0
   -3.0560    8.1170   19.6400 C   0  0  0  0  0
   -3.6940    9.4740   19.5440 C   0  3  0  0  0
   -2.9810   10.4910   19.1390 N   0  0  0  0  0
   -4.9560    9.6140   19.8860 N   0  0  0  0  0
   -4.0900    4.5600   20.7130 C   0  0  0  0  0
   -4.0520    4.3820   22.2420 C   0  0  0  0  0
   -2.7330    4.7590   22.8850 C   0  0  0  0  0
   -2.7060    5.8960   23.3530 O   0  0  0  0  0
   -1.6530    3.9220   22.9120 N   0  0  0  0  0
   -1.5950    2.7340   22.0300 C   0  0  0  0  0
   -1.1190    1.5670   22.9310 C   0  0  0  0  0
    0.1300    3.3040   24.3760 C   0  0  0  0  0
   -0.3720    4.4270   23.4370 C   0  0  0  0  0
   -0.0250    1.9370   23.8060 N   0  3  0  0  0
   -5.1560    5.1010   22.8930 N   0  0  0  0  0
   -6.0160    4.3560   24.1820 S   0  0  0  0  0
   -7.0700    5.2380   24.6080 O   0  0  0  0  0
   -6.2660    2.9880   23.8750 O   0  0  0  0  0
   -4.7590    4.4100   25.3600 C   0  0  0  0  0
   -4.4710    5.6480   25.9580 C   0  0  0  0  0
   -3.4430    5.7550   26.9290 C   0  0  0  0  0
   -3.0190    3.3300   26.6770 C   0  0  0  0  0
   -2.7100    4.5860   27.2970 C   0  0  0  0  0
   -4.0540    3.2590   25.7070 C   0  0  0  0  0
   -1.6680    4.6280   28.2750 C   0  0  0  0  0
   -0.9450    3.4410   28.6250 C   0  0  0  0  0
   -1.2660    2.2110   28.0000 C   0  0  0  0  0
   -2.2910    2.1500   27.0330 C   0  0  0  0  0
   -1.9906   10.3586   18.8889 H   0  0  0  0  0
   -5.4976    8.7969   20.2022 H   0  0  0  0  0
   -5.4029   10.5407   19.8376 H   0  0  0  0  0
   -3.7096    3.6394   20.2463 H   0  0  0  0  0
   -5.1344    4.7214   20.4076 H   0  0  0  0  0
   -4.2018    3.3094   22.4344 H   0  0  0  0  0
   -0.8821    2.9001   21.2089 H   0  0  0  0  0
   -2.5896    2.5162   21.6137 H   0  0  0  0  0
   -0.7878    0.7393   22.2867 H   0  0  0  0  0
   -1.9654    1.2341   23.5497 H   0  0  0  0  0
    1.1965    3.4753   24.5839 H   0  0  0  0  0
   -0.4397    3.3557   25.3156 H   0  0  0  0  0
   -0.5222    5.3628   23.9953 H   0  0  0  0  0
    0.3431    4.5988   22.6190 H   0  0  0  0  0
    0.8197    1.7550   23.2869 H   0  0  0  0  0
   -0.0762    1.3113   24.5947 H   0  0  0  0  0
   -5.4060    6.0198   22.5875 H   0  0  0  0  0
   -5.0383    6.5274   25.6754 H   0  0  0  0  0
   -3.2166    6.7116   27.3859 H   0  0  0  0  0
   -4.2950    2.3120   25.2378 H   0  0  0  0  0
   -1.4222    5.5674   28.7568 H   0  0  0  0  0
   -0.1548    3.4844   29.3658 H   0  0  0  0  0
   -0.7213    1.3124   28.2662 H   0  0  0  0  0
   -2.5285    1.2054   26.5573 H   0  0  0  0  0
  7  1  1  0  0  0
  8  2  1  0  0  0
  9  3  1  0  0  0
 10  4  1  0  0  0
  6 15  1  0  0  0
  6  8  4  0  0  0
  7  6  4  0  0  0
 11  7  4  0  0  0
 11 12  1  0  0  0
 10 11  4  0  0  0
 10  9  4  0  0  0
  9  8  4  0  0  0
 12 14  1  0  0  0
 12 13  1  0  0  0
 15 16  1  0  0  0
 16 25  1  0  0  0
 16 17  1  0  0  0
 17 19  1  0  0  0
 17 18  2  0  0  0
 19 23  1  0  0  0
 19 20  1  0  0  0
 20 21  1  0  0  0
 21 24  1  0  0  0
 24 22  1  0  0  0
 22 23  1  0  0  0
 25 26  1  0  0  0
 26 29  1  0  0  0
 26 28  2  0  0  0
 26 27  2  0  0  0
 29 34  4  0  0  0
 29 30  4  0  0  0
 30 31  4  0  0  0
 31 33  4  0  0  0
 33 32  4  0  0  0
 33 35  4  0  0  0
 35 36  4  0  0  0
 36 37  4  0  0  0
 37 38  4  0  0  0
 38 32  4  0  0  0
 32 34  4  0  0  0
 13  5  1  0  0  0
 13 39  1  0  0  0
 14 40  1  0  0  0
 14 41  1  0  0  0
 15 42  1  0  0  0
 15 43  1  0  0  0
 16 44  1  0  0  0
 20 45  1  0  0  0
 20 46  1  0  0  0
 21 47  1  0  0  0
 21 48  1  0  0  0
 22 49  1  0  0  0
 22 50  1  0  0  0
 23 51  1  0  0  0
 23 52  1  0  0  0
 24 53  1  0  0  0
 24 54  1  0  0  0
 25 55  1  0  0  0
 30 56  1  0  0  0
 31 57  1  0  0  0
 34 58  1  0  0  0
 35 59  1  0  0  0
 36 60  1  0  0  0
 37 61  1  0  0  0
 38 62  1  0  0  0
M  END
$$$$
