### 
### Created by X-TOOL on Tue Oct 25 02:36:14 2005
### 

@<TRIPOS>MOLECULE
1k1l_ligand
   62    65     1     0     0
SMALL
GAST_HUCK


@<TRIPOS>ATOM
      1 H71        -4.8495    7.1777   20.3830 H         1 SUB1        0.060
      2 H81        -1.4516    4.5770   19.8832 H         1 SUB1        0.056
      3 H91        -0.0907    6.4962   19.0938 H         1 SUB1        0.060
      4 H101       -1.1160    8.7613   18.9229 H         1 SUB1        0.061
      5 H131       -3.4092   11.4252   19.0698 H         1 SUB1        0.192
      6 C65        -3.2450    5.7480   20.2080 C.ar      1 SUB1       -0.034
      7 C66        -3.8130    7.0280   20.1030 C.ar      1 SUB1       -0.005
      8 C64        -1.8960    5.5640   19.8250 C.ar      1 SUB1       -0.060
      9 C63        -1.1280    6.6450   19.3710 C.ar      1 SUB1       -0.064
     10 C62        -1.7070    7.9240   19.2760 C.ar      1 SUB1       -0.014
     11 C61        -3.0560    8.1170   19.6400 C.ar      1 SUB1        0.179
     12 C25        -3.6940    9.4740   19.5440 C.cat     1 SUB1        0.315
     13 N43        -2.9810   10.4910   19.1390 N.pl3     1 SUB1       -0.200
     14 N54        -4.9560    9.6140   19.8860 N.pl3     1 SUB1       -0.200
     15 C34        -4.0900    4.5600   20.7130 C.3       1 SUB1        0.018
     16 C31        -4.0520    4.3820   22.2420 C.3       1 SUB1        0.136
     17 C35        -2.7330    4.7590   22.8850 C.2       1 SUB1        0.203
     18 O36        -2.7060    5.8960   23.3530 O.2       1 SUB1       -0.395
     19 N81        -1.6530    3.9220   22.9120 N.am      1 SUB1       -0.261
     20 C71        -1.5950    2.7340   22.0300 C.3       1 SUB1        0.074
     21 C72        -1.1190    1.5670   22.9310 C.3       1 SUB1       -0.013
     22 C74         0.1300    3.3040   24.3760 C.3       1 SUB1       -0.013
     23 C75        -0.3720    4.4270   23.4370 C.3       1 SUB1        0.074
     24 N40        -0.0250    1.9370   23.8060 N.4       1 SUB1        0.230
     25 N29        -5.1560    5.1010   22.8930 N.am      1 SUB1       -0.223
     26 S12        -6.0160    4.3560   24.1820 S.o2      1 SUB1        0.071
     27 O32        -7.0700    5.2380   24.6080 O.2       1 SUB1       -0.150
     28 O33        -6.2660    2.9880   23.8750 O.2       1 SUB1       -0.150
     29 C2         -4.7590    4.4100   25.3600 C.ar      1 SUB1        0.109
     30 C3         -4.4710    5.6480   25.9580 C.ar      1 SUB1       -0.034
     31 C4         -3.4430    5.7550   26.9290 C.ar      1 SUB1       -0.052
     32 C9         -3.0190    3.3300   26.6770 C.ar      1 SUB1       -0.016
     33 C10        -2.7100    4.5860   27.2970 C.ar      1 SUB1       -0.018
     34 C1         -4.0540    3.2590   25.7070 C.ar      1 SUB1       -0.027
     35 C5         -1.6680    4.6280   28.2750 C.ar      1 SUB1       -0.054
     36 C6         -0.9450    3.4410   28.6250 C.ar      1 SUB1       -0.061
     37 C7         -1.2660    2.2110   28.0000 C.ar      1 SUB1       -0.061
     38 C8         -2.2910    2.1500   27.0330 C.ar      1 SUB1       -0.054
     39 H132       -1.9906   10.3586   18.8889 H         1 SUB1        0.192
     40 H141       -5.4976    8.7969   20.2022 H         1 SUB1        0.192
     41 H142       -5.4029   10.5407   19.8376 H         1 SUB1        0.192
     42 H151       -3.7096    3.6394   20.2463 H         1 SUB1        0.047
     43 H152       -5.1344    4.7214   20.4076 H         1 SUB1        0.047
     44 H161       -4.2018    3.3094   22.4344 H         1 SUB1        0.078
     45 H201       -0.8821    2.9001   21.2089 H         1 SUB1        0.058
     46 H202       -2.5896    2.5162   21.6137 H         1 SUB1        0.058
     47 H211       -0.7878    0.7393   22.2867 H         1 SUB1        0.083
     48 H212       -1.9654    1.2341   23.5497 H         1 SUB1        0.083
     49 H221        1.1965    3.4753   24.5839 H         1 SUB1        0.083
     50 H222       -0.4397    3.3557   25.3156 H         1 SUB1        0.083
     51 H231       -0.5222    5.3628   23.9953 H         1 SUB1        0.058
     52 H232        0.3431    4.5988   22.6190 H         1 SUB1        0.058
     53 H241        0.8197    1.7550   23.2869 H         1 SUB1        0.201
     54 H242       -0.0762    1.3113   24.5947 H         1 SUB1        0.201
     55 H251       -5.4060    6.0198   22.5875 H         1 SUB1        0.171
     56 H301       -5.0383    6.5274   25.6754 H         1 SUB1        0.064
     57 H311       -3.2166    6.7116   27.3859 H         1 SUB1        0.062
     58 H341       -4.2950    2.3120   25.2378 H         1 SUB1        0.064
     59 H351       -1.4222    5.5674   28.7568 H         1 SUB1        0.062
     60 H361       -0.1548    3.4844   29.3658 H         1 SUB1        0.062
     61 H371       -0.7213    1.3124   28.2662 H         1 SUB1        0.062
     62 H381       -2.5285    1.2054   26.5573 H         1 SUB1        0.062
@<TRIPOS>BOND
     1    7    1 1  
     2    8    2 1  
     3    9    3 1  
     4   10    4 1  
     5    6   15 1  
     6    6    8 ar 
     7    7    6 ar 
     8   11    7 ar 
     9   11   12 1  
    10   10   11 ar 
    11   10    9 ar 
    12    9    8 ar 
    13   12   14 1  
    14   12   13 1  
    15   15   16 1  
    16   16   25 1  
    17   16   17 1  
    18   17   19 am 
    19   17   18 2  
    20   19   23 1  
    21   19   20 1  
    22   20   21 1  
    23   21   24 1  
    24   24   22 1  
    25   22   23 1  
    26   25   26 1  
    27   26   29 1  
    28   26   28 2  
    29   26   27 2  
    30   29   34 ar 
    31   29   30 ar 
    32   30   31 ar 
    33   31   33 ar 
    34   33   32 ar 
    35   33   35 ar 
    36   35   36 ar 
    37   36   37 ar 
    38   37   38 ar 
    39   38   32 ar 
    40   32   34 ar 
    41   13    5 1  
    42   13   39 1  
    43   14   40 1  
    44   14   41 1  
    45   15   42 1  
    46   15   43 1  
    47   16   44 1  
    48   20   45 1  
    49   20   46 1  
    50   21   47 1  
    51   21   48 1  
    52   22   49 1  
    53   22   50 1  
    54   23   51 1  
    55   23   52 1  
    56   24   53 1  
    57   24   54 1  
    58   25   55 1  
    59   30   56 1  
    60   31   57 1  
    61   34   58 1  
    62   35   59 1  
    63   36   60 1  
    64   37   61 1  
    65   38   62 1  
@<TRIPOS>SUBSTRUCTURE
     1 SUB1        1 GROUP

