1gi9_ligand
  -I-interpret- 

 36 38  0  0  0  0  0  0  0  0999 V2000
    8.7430    1.8370   24.6990 C   0  0  0  0  0
    9.5440    1.6220   23.5520 C   0  0  0  0  0
   10.1750    2.6690   22.8830 C   0  0  0  0  0
    9.9800    3.9360   23.3850 C   0  0  0  0  0
    9.2320    4.1920   24.4800 C   0  0  0  0  0
    8.6020    3.1670   25.1510 C   0  0  0  0  0
    8.1150    0.7900   25.3680 C   0  3  0  0  0
    7.5460    1.0320   26.5170 N   0  0  0  0  0
    8.0760   -0.4230   24.8740 N   0  0  0  0  0
   10.4120    5.0800   23.0040 N   0  0  0  0  0
    9.1810    5.4660   24.7810 N   0  0  0  0  0
    9.9390    5.9890   23.8170 C   0  0  0  0  0
   10.2220    7.3480   23.6410 C   0  0  0  0  0
    9.8990    8.3340   24.5960 C   0  0  0  0  0
   10.1950    9.6930   24.3940 C   0  0  0  0  0
    9.9030   10.6870   25.3250 O   0  0  0  0  0
    9.6530   10.3160   26.6740 C   0  0  0  0  0
   10.8230   10.0670   23.2080 C   0  0  0  0  0
   11.1510    9.1200   22.2520 C   0  0  0  0  0
   10.8540    7.7810   22.4630 C   0  0  0  0  0
   11.1930    6.8740   21.4800 O   0  0  0  0  0
    9.6706    0.6109   23.1823 H   0  0  0  0  0
   10.7907    2.4940   22.0081 H   0  0  0  0  0
    7.9984    3.3815   26.0255 H   0  0  0  0  0
    7.0757    0.2720   27.0290 H   0  0  0  0  0
    7.5671    1.9830   26.9120 H   0  0  0  0  0
    8.5221   -0.6246   23.9677 H   0  0  0  0  0
    7.5993   -1.1749   25.3919 H   0  0  0  0  0
    8.6884    5.9364   25.5536 H   0  0  0  0  0
    9.4072    8.0345   25.5144 H   0  0  0  0  0
    9.4411   11.2168   27.2687 H   0  0  0  0  0
   10.5371    9.8057   27.0838 H   0  0  0  0  0
    8.7873    9.6385   26.7136 H   0  0  0  0  0
   11.0575   11.1105   23.0315 H   0  0  0  0  0
   11.6417    9.4261   21.3352 H   0  0  0  0  0
   10.9345    6.0015   21.7529 H   0  0  0  0  0
  1  7  1  0  0  0
  1  6  4  0  0  0
  1  2  4  0  0  0
  2  3  4  0  0  0
  3  4  4  0  0  0
  4 10  1  0  0  0
  4  5  4  0  0  0
  5 11  1  0  0  0
  5  6  4  0  0  0
 11 12  1  0  0  0
 12 13  1  0  0  0
 12 10  2  0  0  0
 13 20  4  0  0  0
 13 14  4  0  0  0
  2 22  1  0  0  0
 14 15  4  0  0  0
 15 18  4  0  0  0
 15 16  1  0  0  0
 16 17  1  0  0  0
  3 23  1  0  0  0
 18 19  4  0  0  0
  6 24  1  0  0  0
 19 20  4  0  0  0
 20 21  1  0  0  0
  7  9  1  0  0  0
  7  8  1  0  0  0
  8 25  1  0  0  0
  8 26  1  0  0  0
  9 27  1  0  0  0
  9 28  1  0  0  0
 11 29  1  0  0  0
 14 30  1  0  0  0
 17 31  1  0  0  0
 17 32  1  0  0  0
 17 33  1  0  0  0
 18 34  1  0  0  0
 19 35  1  0  0  0
 21 36  1  0  0  0
M  END
$$$$
