### 
### Created by X-TOOL on Mon Oct 24 22:46:18 2005
### 

@<TRIPOS>MOLECULE
1gi9_ligand
   36    38     1     0     0
SMALL
GAST_HUCK


@<TRIPOS>ATOM
      1 C1          8.7430    1.8370   24.6990 C.ar      1 SUB1        0.173
      2 C2          9.5440    1.6220   23.5520 C.ar      1 SUB1       -0.022
      3 C3         10.1750    2.6690   22.8830 C.ar      1 SUB1       -0.058
      4 C4          9.9800    3.9360   23.3850 C.ar      1 SUB1        0.030
      5 C5          9.2320    4.1920   24.4800 C.ar      1 SUB1        0.085
      6 C6          8.6020    3.1670   25.1510 C.ar      1 SUB1        0.014
      7 C7          8.1150    0.7900   25.3680 C.cat     1 SUB1        0.311
      8 N1          7.5460    1.0320   26.5170 N.pl3     1 SUB1       -0.201
      9 N2          8.0760   -0.4230   24.8740 N.pl3     1 SUB1       -0.201
     10 N3         10.4120    5.0800   23.0040 N.2       1 SUB1       -0.311
     11 N4          9.1810    5.4660   24.7810 N.pl3     1 SUB1       -0.251
     12 C8          9.9390    5.9890   23.8170 C.2       1 SUB1        0.134
     13 C1'        10.2220    7.3480   23.6410 C.ar      1 SUB1        0.056
     14 C2'         9.8990    8.3340   24.5960 C.ar      1 SUB1       -0.023
     15 C3'        10.1950    9.6930   24.3940 C.ar      1 SUB1        0.085
     16 O3'         9.9030   10.6870   25.3250 O.3       1 SUB1       -0.327
     17 CM3         9.6530   10.3160   26.6740 C.3       1 SUB1        0.057
     18 C4'        10.8230   10.0670   23.2080 C.ar      1 SUB1       -0.036
     19 C5'        11.1510    9.1200   22.2520 C.ar      1 SUB1       -0.034
     20 C6'        10.8540    7.7810   22.4630 C.ar      1 SUB1        0.098
     21 O6'        11.1930    6.8740   21.4800 O.3       1 SUB1       -0.333
     22 H21         9.6706    0.6109   23.1823 H         1 SUB1        0.057
     23 H31        10.7907    2.4940   22.0081 H         1 SUB1        0.055
     24 H61         7.9984    3.3815   26.0255 H         1 SUB1        0.059
     25 H81         7.0757    0.2720   27.0290 H         1 SUB1        0.192
     26 H82         7.5671    1.9830   26.9120 H         1 SUB1        0.192
     27 H91         8.5221   -0.6246   23.9677 H         1 SUB1        0.192
     28 H92         7.5993   -1.1749   25.3919 H         1 SUB1        0.192
     29 H111        8.6884    5.9364   25.5536 H         1 SUB1        0.230
     30 H141        9.4072    8.0345   25.5144 H         1 SUB1        0.055
     31 H171        9.4411   11.2168   27.2687 H         1 SUB1        0.057
     32 H172       10.5371    9.8057   27.0838 H         1 SUB1        0.057
     33 H173        8.7873    9.6385   26.7136 H         1 SUB1        0.057
     34 H181       11.0575   11.1105   23.0315 H         1 SUB1        0.056
     35 H191       11.6417    9.4261   21.3352 H         1 SUB1        0.053
     36 H211       10.9345    6.0015   21.7529 H         1 SUB1        0.248
@<TRIPOS>BOND
     1    1    7 1  
     2    1    6 ar 
     3    1    2 ar 
     4    2    3 ar 
     5    3    4 ar 
     6    4   10 1  
     7    4    5 ar 
     8    5   11 1  
     9    5    6 ar 
    10   11   12 1  
    11   12   13 1  
    12   12   10 2  
    13   13   20 ar 
    14   13   14 ar 
    15    2   22 1  
    16   14   15 ar 
    17   15   18 ar 
    18   15   16 1  
    19   16   17 1  
    20    3   23 1  
    21   18   19 ar 
    22    6   24 1  
    23   19   20 ar 
    24   20   21 1  
    25    7    9 1  
    26    7    8 1  
    27    8   25 1  
    28    8   26 1  
    29    9   27 1  
    30    9   28 1  
    31   11   29 1  
    32   14   30 1  
    33   17   31 1  
    34   17   32 1  
    35   17   33 1  
    36   18   34 1  
    37   19   35 1  
    38   21   36 1  
@<TRIPOS>SUBSTRUCTURE
     1 SUB1        1 GROUP

