2dri_ligand
  -I-interpret- 

 20 20  0  0  0  0  0  0  0  0999 V2000
   50.1440   33.6000   44.1560 C   0  0  0  0  0
   49.4580   33.0880   45.4190 C   0  0  0  0  0
   49.0810   34.2650   46.3280 C   0  0  0  0  0
   50.3330   35.1100   46.6080 C   0  0  0  0  0
   50.9730   35.5300   45.2930 C   0  0  0  0  0
   50.5540   32.5410   43.3290 O   0  0  0  0  0
   48.3010   32.3610   45.0800 O   0  0  0  0  0
   48.0780   35.0500   45.6860 O   0  0  0  0  0
   50.0130   36.2510   47.3700 O   0  0  0  0  0
   51.2830   34.3700   44.5110 O   0  0  0  0  0
   49.4610   34.2590   43.5920 H   0  0  0  0  0
   50.1640   32.4380   45.9510 H   0  0  0  0  0
   48.6940   33.8650   47.2750 H   0  0  0  0  0
   51.0510   34.4910   47.1580 H   0  0  0  0  0
   51.9020   36.0840   45.4820 H   0  0  0  0  0
   50.2840   36.1670   44.7210 H   0  0  0  0  0
   50.9666   32.8948   42.5397 H   0  0  0  0  0
   47.6813   32.9414   44.6143 H   0  0  0  0  0
   47.2953   34.4988   45.5175 H   0  0  0  0  0
   49.3958   36.8023   46.8769 H   0  0  0  0  0
  1  2  1  0  0  0
  1  6  1  0  0  0
  1 10  1  0  0  0
  1 11  1  0  0  0
  2  3  1  0  0  0
  2  7  1  0  0  0
  2 12  1  0  0  0
  3  4  1  0  0  0
  3  8  1  0  0  0
  3 13  1  0  0  0
  4  5  1  0  0  0
  4  9  1  0  0  0
  4 14  1  0  0  0
  5 10  1  0  0  0
  5 15  1  0  0  0
  5 16  1  0  0  0
  6 17  1  0  0  0
  7 18  1  0  0  0
  8 19  1  0  0  0
  9 20  1  0  0  0
M  END
$$$$
