### 
### Created by X-TOOL on Mon Oct 24 22:02:11 2005
### 

@<TRIPOS>MOLECULE
2dri_ligand
   20    20     1     0     0
SMALL
GAST_HUCK


@<TRIPOS>ATOM
      1 C1         50.1440   33.6000   44.1560 C.3       1 SUB1        0.185
      2 C2         49.4580   33.0880   45.4190 C.3       1 SUB1        0.134
      3 C3         49.0810   34.2650   46.3280 C.3       1 SUB1        0.114
      4 C4         50.3330   35.1100   46.6080 C.3       1 SUB1        0.107
      5 C5         50.9730   35.5300   45.2930 C.3       1 SUB1        0.079
      6 O1         50.5540   32.5410   43.3290 O.3       1 SUB1       -0.365
      7 O2         48.3010   32.3610   45.0800 O.3       1 SUB1       -0.384
      8 O3         48.0780   35.0500   45.6860 O.3       1 SUB1       -0.386
      9 O4         50.0130   36.2510   47.3700 O.3       1 SUB1       -0.387
     10 O5         51.2830   34.3700   44.5110 O.3       1 SUB1       -0.346
     11 H11        49.4610   34.2590   43.5920 H         1 SUB1        0.094
     12 H21        50.1640   32.4380   45.9510 H         1 SUB1        0.067
     13 H31        48.6940   33.8650   47.2750 H         1 SUB1        0.065
     14 H41        51.0510   34.4910   47.1580 H         1 SUB1        0.064
     15 H51        51.9020   36.0840   45.4820 H         1 SUB1        0.059
     16 H52        50.2840   36.1670   44.7210 H         1 SUB1        0.059
     17 H61        50.9666   32.8948   42.5397 H         1 SUB1        0.213
     18 H71        47.6813   32.9414   44.6143 H         1 SUB1        0.210
     19 H81        47.2953   34.4988   45.5175 H         1 SUB1        0.210
     20 H91        49.3958   36.8023   46.8769 H         1 SUB1        0.210
@<TRIPOS>BOND
     1    1    2 1  
     2    1    6 1  
     3    1   10 1  
     4    1   11 1  
     5    2    3 1  
     6    2    7 1  
     7    2   12 1  
     8    3    4 1  
     9    3    8 1  
    10    3   13 1  
    11    4    5 1  
    12    4    9 1  
    13    4   14 1  
    14    5   10 1  
    15    5   15 1  
    16    5   16 1  
    17    6   17 1  
    18    7   18 1  
    19    8   19 1  
    20    9   20 1  
@<TRIPOS>SUBSTRUCTURE
     1 SUB1        1 GROUP

