1rdi_ligand
  -I-interpret- 

 26 26  0  0  0  0  0  0  0  0999 V2000
    3.7250   47.9950    0.9270 C   0  0  0  0  0
    4.2030   46.8310    1.7950 C   0  0  0  0  0
    3.0170   46.0070    2.2690 C   0  0  0  0  0
    2.2300   45.5160    1.0540 C   0  0  0  0  0
    1.8170   46.7080    0.1770 C   0  0  0  0  0
    1.1410   46.2830   -1.1180 C   0  0  0  0  0
    2.9890   48.8900    1.7130 O   0  0  0  0  0
    4.9040   47.3240    2.9230 O   0  0  0  0  0
    3.4980   44.8950    3.0100 O   0  0  0  0  0
    3.0420   44.6180    0.3160 O   0  0  0  0  0
    2.9720   47.5020   -0.1850 O   0  0  0  0  0
    2.7480   50.1760    1.1080 C   0  0  0  0  0
    4.6050   48.5257    0.5347 H   0  0  0  0  0
    4.8736   46.1924    1.2013 H   0  0  0  0  0
    2.3659   46.6233    2.9063 H   0  0  0  0  0
    1.3252   44.9911    1.3942 H   0  0  0  0  0
    1.1169   47.3299    0.7541 H   0  0  0  0  0
    0.8699   47.1760   -1.7003 H   0  0  0  0  0
    0.2330   45.7071   -0.8858 H   0  0  0  0  0
    1.8313   45.6587   -1.7043 H   0  0  0  0  0
    4.3279   47.8800    3.4343 H   0  0  0  0  0
    4.0577   44.3645    2.4553 H   0  0  0  0  0
    3.2781   43.8807    0.8666 H   0  0  0  0  0
    2.1661   50.8032    1.7994 H   0  0  0  0  0
    2.1849   50.0415    0.1727 H   0  0  0  0  0
    3.7091   50.6647    0.8903 H   0  0  0  0  0
  1 11  1  0  0  0
  1  7  1  0  0  0
  1  2  1  0  0  0
  2  8  1  0  0  0
  2  3  1  0  0  0
  3  9  1  0  0  0
  3  4  1  0  0  0
  4 10  1  0  0  0
  4  5  1  0  0  0
  5 11  1  0  0  0
  5  6  1  0  0  0
  7 12  1  0  0  0
  1 13  1  0  0  0
  2 14  1  0  0  0
  3 15  1  0  0  0
  4 16  1  0  0  0
  5 17  1  0  0  0
  6 18  1  0  0  0
  6 19  1  0  0  0
  6 20  1  0  0  0
  8 21  1  0  0  0
  9 22  1  0  0  0
 10 23  1  0  0  0
 12 24  1  0  0  0
 12 25  1  0  0  0
 12 26  1  0  0  0
M  END
$$$$
