### 
### Created by X-TOOL on Mon Oct 24 22:39:47 2005
### 

@<TRIPOS>MOLECULE
1rdi_ligand
   26    26     1     0     0
SMALL
GAST_HUCK


@<TRIPOS>ATOM
      1 C1          3.7250   47.9950    0.9270 C.3       1 SUB1        0.188
      2 C2          4.2030   46.8310    1.7950 C.3       1 SUB1        0.134
      3 C3          3.0170   46.0070    2.2690 C.3       1 SUB1        0.114
      4 C4          2.2300   45.5160    1.0540 C.3       1 SUB1        0.109
      5 C5          1.8170   46.7080    0.1770 C.3       1 SUB1        0.087
      6 C6          1.1410   46.2830   -1.1180 C.3       1 SUB1       -0.036
      7 O1          2.9890   48.8900    1.7130 O.3       1 SUB1       -0.352
      8 O2          4.9040   47.3240    2.9230 O.3       1 SUB1       -0.384
      9 O3          3.4980   44.8950    3.0100 O.3       1 SUB1       -0.386
     10 O4          3.0420   44.6180    0.3160 O.3       1 SUB1       -0.387
     11 O5          2.9720   47.5020   -0.1850 O.3       1 SUB1       -0.343
     12 CM          2.7480   50.1760    1.1080 C.3       1 SUB1        0.040
     13 H11         4.6050   48.5257    0.5347 H         1 SUB1        0.094
     14 H21         4.8736   46.1924    1.2013 H         1 SUB1        0.067
     15 H31         2.3659   46.6233    2.9063 H         1 SUB1        0.065
     16 H41         1.3252   44.9911    1.3942 H         1 SUB1        0.065
     17 H51         1.1169   47.3299    0.7541 H         1 SUB1        0.062
     18 H61         0.8699   47.1760   -1.7003 H         1 SUB1        0.025
     19 H62         0.2330   45.7071   -0.8858 H         1 SUB1        0.025
     20 H63         1.8313   45.6587   -1.7043 H         1 SUB1        0.025
     21 H81         4.3279   47.8800    3.4343 H         1 SUB1        0.210
     22 H91         4.0577   44.3645    2.4553 H         1 SUB1        0.210
     23 H101        3.2781   43.8807    0.8666 H         1 SUB1        0.210
     24 H121        2.1661   50.8032    1.7994 H         1 SUB1        0.052
     25 H122        2.1849   50.0415    0.1727 H         1 SUB1        0.052
     26 H123        3.7091   50.6647    0.8903 H         1 SUB1        0.052
@<TRIPOS>BOND
     1    1   11 1  
     2    1    7 1  
     3    1    2 1  
     4    2    8 1  
     5    2    3 1  
     6    3    9 1  
     7    3    4 1  
     8    4   10 1  
     9    4    5 1  
    10    5   11 1  
    11    5    6 1  
    12    7   12 1  
    13    1   13 1  
    14    2   14 1  
    15    3   15 1  
    16    4   16 1  
    17    5   17 1  
    18    6   18 1  
    19    6   19 1  
    20    6   20 1  
    21    8   21 1  
    22    9   22 1  
    23   10   23 1  
    24   12   24 1  
    25   12   25 1  
    26   12   26 1  
@<TRIPOS>SUBSTRUCTURE
     1 SUB1        1 GROUP

