### 
### Created by X-TOOL on Mon Oct 24 23:43:44 2005
### 

@<TRIPOS>MOLECULE
1if7_ligand
   47    49     1     0     0
SMALL
GAST_HUCK


@<TRIPOS>ATOM
      1 H31        -0.5510    6.9352   12.1780 H         1 SUB1        0.060
      2 H32        -1.8578    7.9621   11.4965 H         1 SUB1        0.060
      3 C01        -1.4150    7.5700   12.4240 C.3       1 SUB1        0.056
      4 C02        -2.4830    6.7100   13.1760 C.3       1 SUB1        0.003
      5 C03        -2.9290    5.5870   12.2330 C.3       1 SUB1        0.035
      6 N04        -3.1040    4.2970   13.0760 N.am      1 SUB1       -0.286
      7 C05        -4.4140    4.2160   13.6600 C.2       1 SUB1        0.205
      8 O06        -5.2100    5.1280   13.4560 O.2       1 SUB1       -0.385
      9 C07        -4.7370    3.1110   14.4160 C.ar      1 SUB1        0.050
     10 C08        -3.8070    2.0420   14.6420 C.ar      1 SUB1       -0.040
     11 C09        -4.1770    0.8990   15.4200 C.ar      1 SUB1       -0.030
     12 C10        -5.5020    0.8150   15.9910 C.ar      1 SUB1        0.112
     13 C11        -6.3960    1.8940   15.7530 C.ar      1 SUB1       -0.030
     14 C12        -6.0180    3.0150   14.9830 C.ar      1 SUB1       -0.040
     15 S13        -6.0080   -0.3710   16.8450 S.o2      1 SUB1        0.068
     16 O14        -5.4510   -0.3090   18.1820 O.2       1 SUB1       -0.150
     17 O15        -7.4220   -0.2950   16.9430 O.2       1 SUB1       -0.150
     18 NP6        -5.6630   -1.6830   16.2030 N.am      1 SUB1       -0.261
     19 N17        -0.9680    8.6830   13.2440 N.pl3     1 SUB1       -0.265
     20 C18        -0.0340    8.5850   14.2160 C.2       1 SUB1        0.024
     21 C19         0.1420    9.9250   14.8090 C.2       1 SUB1       -0.064
     22 C20        -1.3740    9.9150   13.1760 C.ar      1 SUB1        0.066
     23 C21        -2.3340   10.5280   12.3300 C.ar      1 SUB1       -0.043
     24 C22        -2.6030   11.9090   12.4500 C.ar      1 SUB1       -0.076
     25 C23        -1.9160   12.6800   13.4200 C.ar      1 SUB1       -0.079
     26 C24        -0.9570   12.0700   14.2680 C.ar      1 SUB1       -0.075
     27 C25        -0.6860   10.6870   14.1470 C.ar      1 SUB1       -0.028
     28 C26        -1.8740    6.1190   14.4700 C.3       1 SUB1       -0.058
     29 H41        -3.3475    7.3379   13.4375 H         1 SUB1        0.034
     30 H51        -2.1662    5.4256   11.4571 H         1 SUB1        0.052
     31 H52        -3.8842    5.8553   11.7580 H         1 SUB1        0.052
     32 H61        -2.3917    3.6058   13.1981 H         1 SUB1        0.184
     33 H101       -2.8111    2.1008   14.2180 H         1 SUB1        0.067
     34 H111       -3.4647    0.0978   15.5806 H         1 SUB1        0.065
     35 H131       -7.3942    1.8550   16.1738 H         1 SUB1        0.065
     36 H141       -6.7302    3.8171   14.8264 H         1 SUB1        0.067
     37 H181       -5.9303   -2.5473   16.6475 H         1 SUB1        0.163
     38 H201        0.4944    7.6790   14.5093 H         1 SUB1        0.093
     39 H211        0.8122   10.2134   15.6174 H         1 SUB1        0.029
     40 H231       -2.8614    9.9357   11.5910 H         1 SUB1        0.054
     41 H241       -3.3337   12.3783   11.8012 H         1 SUB1        0.053
     42 H251       -2.1241   13.7397   13.5142 H         1 SUB1        0.052
     43 H261       -0.4321   12.6630   15.0082 H         1 SUB1        0.054
     44 H281       -1.5597    6.9375   15.1344 H         1 SUB1        0.023
     45 H282       -1.0022    5.4986   14.2149 H         1 SUB1        0.023
     46 H283       -2.6271    5.5009   14.9807 H         1 SUB1        0.023
     47 H182       -5.1680   -1.6997   15.3343 H         1 SUB1        0.163
@<TRIPOS>BOND
     1    3   19 1  
     2    3    4 1  
     3    4   28 1  
     4    4    5 1  
     5    5    6 1  
     6    6    7 am 
     7    7    9 1  
     8    7    8 2  
     9    9   14 ar 
    10    9   10 ar 
    11   10   11 ar 
    12   11   12 ar 
    13   12   15 1  
    14   12   13 ar 
    15   13   14 ar 
    16   15   18 1  
    17   15   17 2  
    18   15   16 2  
    19   19   22 1  
    20   19   20 1  
    21   20   21 2  
    22   21   27 1  
    23   27   26 ar 
    24   27   22 ar 
    25   22   23 ar 
    26   23   24 ar 
    27   24   25 ar 
    28   25   26 ar 
    29    3    1 1  
    30    3    2 1  
    31    4   29 1  
    32    5   30 1  
    33    5   31 1  
    34    6   32 1  
    35   10   33 1  
    36   11   34 1  
    37   13   35 1  
    38   14   36 1  
    39   18   37 1  
    40   20   38 1  
    41   21   39 1  
    42   23   40 1  
    43   24   41 1  
    44   25   42 1  
    45   26   43 1  
    46   28   44 1  
    47   28   45 1  
    48   28   46 1  
    49   18   47 1  
@<TRIPOS>SUBSTRUCTURE
     1 SUB1        1 GROUP

