1if7_ligand
  -I-interpret- 

 47 49  0  0  0  0  0  0  0  0999 V2000
   -0.5510    6.9352   12.1780 H   0  0  0  0  0
   -1.8578    7.9621   11.4965 H   0  0  0  0  0
   -1.4150    7.5700   12.4240 C   0  0  0  0  0
   -2.4830    6.7100   13.1760 C   0  0  0  0  0
   -2.9290    5.5870   12.2330 C   0  0  0  0  0
   -3.1040    4.2970   13.0760 N   0  0  0  0  0
   -4.4140    4.2160   13.6600 C   0  0  0  0  0
   -5.2100    5.1280   13.4560 O   0  0  0  0  0
   -4.7370    3.1110   14.4160 C   0  0  0  0  0
   -3.8070    2.0420   14.6420 C   0  0  0  0  0
   -4.1770    0.8990   15.4200 C   0  0  0  0  0
   -5.5020    0.8150   15.9910 C   0  0  0  0  0
   -6.3960    1.8940   15.7530 C   0  0  0  0  0
   -6.0180    3.0150   14.9830 C   0  0  0  0  0
   -6.0080   -0.3710   16.8450 S   0  0  0  0  0
   -5.4510   -0.3090   18.1820 O   0  0  0  0  0
   -7.4220   -0.2950   16.9430 O   0  0  0  0  0
   -5.6630   -1.6830   16.2030 N   0  0  0  0  0
   -0.9680    8.6830   13.2440 N   0  0  0  0  0
   -0.0340    8.5850   14.2160 C   0  0  0  0  0
    0.1420    9.9250   14.8090 C   0  0  0  0  0
   -1.3740    9.9150   13.1760 C   0  0  0  0  0
   -2.3340   10.5280   12.3300 C   0  0  0  0  0
   -2.6030   11.9090   12.4500 C   0  0  0  0  0
   -1.9160   12.6800   13.4200 C   0  0  0  0  0
   -0.9570   12.0700   14.2680 C   0  0  0  0  0
   -0.6860   10.6870   14.1470 C   0  0  0  0  0
   -1.8740    6.1190   14.4700 C   0  0  0  0  0
   -3.3475    7.3379   13.4375 H   0  0  0  0  0
   -2.1662    5.4256   11.4571 H   0  0  0  0  0
   -3.8842    5.8553   11.7580 H   0  0  0  0  0
   -2.3917    3.6058   13.1981 H   0  0  0  0  0
   -2.8111    2.1008   14.2180 H   0  0  0  0  0
   -3.4647    0.0978   15.5806 H   0  0  0  0  0
   -7.3942    1.8550   16.1738 H   0  0  0  0  0
   -6.7302    3.8171   14.8264 H   0  0  0  0  0
   -5.9303   -2.5473   16.6475 H   0  0  0  0  0
    0.4944    7.6790   14.5093 H   0  0  0  0  0
    0.8122   10.2134   15.6174 H   0  0  0  0  0
   -2.8614    9.9357   11.5910 H   0  0  0  0  0
   -3.3337   12.3783   11.8012 H   0  0  0  0  0
   -2.1241   13.7397   13.5142 H   0  0  0  0  0
   -0.4321   12.6630   15.0082 H   0  0  0  0  0
   -1.5597    6.9375   15.1344 H   0  0  0  0  0
   -1.0022    5.4986   14.2149 H   0  0  0  0  0
   -2.6271    5.5009   14.9807 H   0  0  0  0  0
   -5.1680   -1.6997   15.3343 H   0  0  0  0  0
  3 19  1  0  0  0
  3  4  1  0  0  0
  4 28  1  0  0  0
  4  5  1  0  0  0
  5  6  1  0  0  0
  6  7  1  0  0  0
  7  9  1  0  0  0
  7  8  2  0  0  0
  9 14  4  0  0  0
  9 10  4  0  0  0
 10 11  4  0  0  0
 11 12  4  0  0  0
 12 15  1  0  0  0
 12 13  4  0  0  0
 13 14  4  0  0  0
 15 18  1  0  0  0
 15 17  2  0  0  0
 15 16  2  0  0  0
 19 22  1  0  0  0
 19 20  1  0  0  0
 20 21  2  0  0  0
 21 27  1  0  0  0
 27 26  4  0  0  0
 27 22  4  0  0  0
 22 23  4  0  0  0
 23 24  4  0  0  0
 24 25  4  0  0  0
 25 26  4  0  0  0
  3  1  1  0  0  0
  3  2  1  0  0  0
  4 29  1  0  0  0
  5 30  1  0  0  0
  5 31  1  0  0  0
  6 32  1  0  0  0
 10 33  1  0  0  0
 11 34  1  0  0  0
 13 35  1  0  0  0
 14 36  1  0  0  0
 18 37  1  0  0  0
 20 38  1  0  0  0
 21 39  1  0  0  0
 23 40  1  0  0  0
 24 41  1  0  0  0
 25 42  1  0  0  0
 26 43  1  0  0  0
 28 44  1  0  0  0
 28 45  1  0  0  0
 28 46  1  0  0  0
 18 47  1  0  0  0
M  END
$$$$
