### 
### Created by X-TOOL on Tue Oct 25 02:34:11 2005
### 

@<TRIPOS>MOLECULE
1bdq_ligand
   81    83     1     0     0
SMALL
GAST_HUCK


@<TRIPOS>ATOM
      1 C1        -10.6520   15.6080   33.1220 C.3       1 SUB1        0.090
      2 C2        -12.1320   15.3120   32.9150 C.3       1 SUB1       -0.032
      3 C3         -9.8390   14.3680   33.4500 C.3       1 SUB1       -0.032
      4 C4        -10.5140   16.5010   34.3430 C.3       1 SUB1       -0.032
      5 C5        -10.0810   15.7520   30.7350 C.2       1 SUB1        0.320
      6 C6        -11.0340   15.6200   28.4770 C.3       1 SUB1        0.079
      7 C7        -12.4740   15.3050   28.0710 C.3       1 SUB1        0.006
      8 C8        -13.0690   14.1930   28.9300 C.ar      1 SUB1       -0.041
      9 C9        -14.0650   14.4900   29.8700 C.ar      1 SUB1       -0.060
     10 C10       -14.5900   13.4580   30.6480 C.ar      1 SUB1       -0.069
     11 C11       -14.1380   12.1430   30.5000 C.ar      1 SUB1       -0.069
     12 C12       -13.1560   11.8530   29.5700 C.ar      1 SUB1       -0.069
     13 C13       -12.6200   12.8700   28.7860 C.ar      1 SUB1       -0.060
     14 C14       -10.4210   16.7000   27.5410 C.3       1 SUB1        0.082
     15 C15        -8.9600   16.8980   27.8650 C.3       1 SUB1       -0.003
     16 C16        -8.1280   17.6210   26.8790 C.3       1 SUB1        0.061
     17 C17        -6.7630   17.8950   27.5820 C.3       1 SUB1        0.001
     18 C18        -5.5980   18.0140   26.6140 C.ar      1 SUB1       -0.041
     19 C19        -5.5060   19.1210   25.7610 C.ar      1 SUB1       -0.060
     20 C20        -4.5030   19.1510   24.8050 C.ar      1 SUB1       -0.069
     21 C21        -3.6020   18.0940   24.6950 C.ar      1 SUB1       -0.069
     22 C22        -3.6960   16.9950   25.5380 C.ar      1 SUB1       -0.069
     23 C23        -4.6910   16.9510   26.5000 C.ar      1 SUB1       -0.060
     24 C24        -8.0190   16.7770   25.6070 C.2       1 SUB1        0.184
     25 C25        -8.1050   16.7030   23.1800 C.3       1 SUB1        0.119
     26 C26        -9.4460   16.6830   22.4220 C.3       1 SUB1       -0.008
     27 C28       -10.5120   15.9660   23.2260 C.3       1 SUB1       -0.058
     28 C29        -7.0610   17.4910   22.3880 C.2       1 SUB1        0.138
     29 C30        -5.2960   17.7920   21.1950 C.2       1 SUB1        0.025
     30 C31        -5.8430   19.0150   21.5680 C.2       1 SUB1       -0.037
     31 N1        -11.0090   16.1020   29.8520 N.am      1 SUB1       -0.255
     32 N2         -8.2020   17.4050   24.4550 N.am      1 SUB1       -0.266
     33 N3         -6.1220   16.8400   21.7460 N.pl3     1 SUB1       -0.263
     34 N4         -6.9820   18.8040   22.3280 N.2       1 SUB1       -0.337
     35 O2         -9.1690   14.9890   30.4220 O.2       1 SUB1       -0.377
     36 O3        -11.0130   18.0050   27.7150 O.3       1 SUB1       -0.389
     37 O4         -7.7480   15.5820   25.6600 O.2       1 SUB1       -0.396
     38 O1        -10.1180   16.2780   32.0270 O.3       1 SUB1       -0.258
     39 H21       -12.5266   14.7828   33.7949 H         1 SUB1        0.026
     40 H22       -12.2587   14.6830   32.0216 H         1 SUB1        0.026
     41 H23       -12.6793   16.2564   32.7792 H         1 SUB1        0.026
     42 H31       -10.2822   13.8580   34.3181 H         1 SUB1        0.026
     43 H32        -8.8045   14.6592   33.6846 H         1 SUB1        0.026
     44 H33        -9.8415   13.6885   32.5850 H         1 SUB1        0.026
     45 H41       -10.9316   15.9877   35.2217 H         1 SUB1        0.026
     46 H42       -11.0599   17.4408   34.1736 H         1 SUB1        0.026
     47 H43        -9.4506   16.7211   34.5180 H         1 SUB1        0.026
     48 H61       -10.4336   14.7012   28.4044 H         1 SUB1        0.060
     49 H71       -12.4868   14.9881   27.0177 H         1 SUB1        0.045
     50 H72       -13.0847   16.2123   28.1884 H         1 SUB1        0.045
     51 H91       -14.4221   15.5064   29.9907 H         1 SUB1        0.056
     52 H101      -15.3600   13.6788   31.3784 H         1 SUB1        0.060
     53 H111      -14.5563   11.3526   31.1127 H         1 SUB1        0.056
     54 H121      -12.8043   10.8344   29.4520 H         1 SUB1        0.060
     55 H131      -11.8501   12.6394   28.0586 H         1 SUB1        0.056
     56 H141      -10.5417   16.3726   26.4978 H         1 SUB1        0.062
     57 H151       -8.5158   15.9009   28.0011 H         1 SUB1        0.032
     58 H152       -8.9063   17.4557   28.8116 H         1 SUB1        0.032
     59 H161       -8.5974   18.5817   26.6207 H         1 SUB1        0.056
     60 H171       -6.5561   17.0672   28.2762 H         1 SUB1        0.045
     61 H172       -6.8443   18.8355   28.1467 H         1 SUB1        0.045
     62 H191       -6.2087   19.9419   25.8472 H         1 SUB1        0.056
     63 H201       -4.4190   20.0020   24.1388 H         1 SUB1        0.060
     64 H211       -2.8206   18.1301   23.9445 H         1 SUB1        0.056
     65 H221       -2.9935   16.1749   25.4436 H         1 SUB1        0.060
     66 H231       -4.7684   16.0970   27.1631 H         1 SUB1        0.056
     67 H251       -7.7683   15.6683   23.3412 H         1 SUB1        0.080
     68 C27        -9.2544   15.9562   21.0779 C.3       1 SUB1       -0.058
     69 H261       -9.7701   17.7176   22.2364 H         1 SUB1        0.034
     70 H271      -11.4574   15.9659   22.6636 H         1 SUB1        0.023
     71 H272      -10.6567   16.4828   24.1862 H         1 SUB1        0.023
     72 H273      -10.1957   14.9289   23.4117 H         1 SUB1        0.023
     73 H291       -4.4034   17.6237   20.5943 H         1 SUB1        0.079
     74 H301       -5.4376   19.9904   21.3030 H         1 SUB1        0.041
     75 H311      -11.7293   16.7300   30.1464 H         1 SUB1        0.187
     76 H321       -8.4115   18.3828   24.4596 H         1 SUB1        0.189
     77 H331       -6.0223   15.8177   21.6692 H         1 SUB1        0.237
     78 H361      -10.6008   18.6203   27.1201 H         1 SUB1        0.210
     79 H681       -8.4815   16.4720   20.4891 H         1 SUB1        0.023
     80 H682      -10.2028   15.9596   20.5207 H         1 SUB1        0.023
     81 H683       -8.9419   14.9180   21.2636 H         1 SUB1        0.023
@<TRIPOS>BOND
     1    1   38 1  
     2    1    4 1  
     3    1    3 1  
     4    1    2 1  
     5   38    5 1  
     6    5   35 2  
     7    5   31 am 
     8   31    6 1  
     9    6   14 1  
    10    6    7 1  
    11    7    8 1  
    12    8   13 ar 
    13    8    9 ar 
    14    9   10 ar 
    15   10   11 ar 
    16   11   12 ar 
    17   12   13 ar 
    18   14   36 1  
    19   14   15 1  
    20   15   16 1  
    21   16   24 1  
    22   16   17 1  
    23   17   18 1  
    24   18   23 ar 
    25   18   19 ar 
    26   19   20 ar 
    27   20   21 ar 
    28   21   22 ar 
    29   22   23 ar 
    30   24   37 2  
    31   24   32 am 
    32   32   25 1  
    33   25   28 1  
    34   25   26 1  
    35   26   27 1  
    36   28   34 2  
    37   28   33 1  
    38   33   29 1  
    39   29   30 2  
    40   30   34 1  
    41    2   39 1  
    42    2   40 1  
    43    2   41 1  
    44    3   42 1  
    45    3   43 1  
    46    3   44 1  
    47    4   45 1  
    48    4   46 1  
    49    4   47 1  
    50    6   48 1  
    51    7   49 1  
    52    7   50 1  
    53    9   51 1  
    54   10   52 1  
    55   11   53 1  
    56   12   54 1  
    57   13   55 1  
    58   14   56 1  
    59   15   57 1  
    60   15   58 1  
    61   16   59 1  
    62   17   60 1  
    63   17   61 1  
    64   19   62 1  
    65   20   63 1  
    66   21   64 1  
    67   22   65 1  
    68   23   66 1  
    69   25   67 1  
    70   26   68 1  
    71   26   69 1  
    72   27   70 1  
    73   27   71 1  
    74   27   72 1  
    75   29   73 1  
    76   30   74 1  
    77   31   75 1  
    78   32   76 1  
    79   33   77 1  
    80   36   78 1  
    81   68   79 1  
    82   68   80 1  
    83   68   81 1  
@<TRIPOS>SUBSTRUCTURE
     1 SUB1        1 GROUP

