1a08_ligand
  -I-interpret- 

 80 80  0  0  0  0  0  0  0  0999 V2000
   41.3330    7.6410   24.6710 C   0  0  0  0  0
   41.0370    8.8260   24.9230 O   0  0  0  0  0
   41.5940    6.6140   25.7620 C   0  0  0  0  0
   41.6110    7.1210   23.4750 N   0  0  0  0  0
   41.4640    7.8470   22.2290 C   0  0  0  0  0
   40.2360    7.3890   21.4600 C   0  0  0  0  0
   39.7050    6.2960   21.6760 O   0  0  0  0  0
   42.7500    7.6550   21.4040 C   0  0  0  0  0
   43.9840    8.0510   22.2010 C   0  0  0  0  0
   44.7090    7.1450   23.0070 C   0  0  0  0  0
   44.3870    9.3440   22.1140 C   0  0  0  0  0
   45.8310    7.5360   23.7220 C   0  0  0  0  0
   45.4940    9.7320   22.8140 C   0  0  0  0  0
   46.2270    8.8610   23.6100 C   0  0  0  0  0
   47.4870    9.4350   24.2980 C   0  0  0  0  0
   48.6090    8.6190   24.1110 F   0  0  0  0  0
   47.8940   10.4980   23.4710 F   0  0  0  0  0
   47.4770    9.8790   26.0920 P   0  0  0  0  0
   48.7700   10.5430   26.2560 O   0  0  0  0  0
   47.4560    8.5560   26.7380 O   0  5  0  0  0
   46.2490   10.7280   26.2340 O   0  5  0  0  0
   37.9687    7.4642   20.1800 H   0  0  0  0  0
   39.8530    8.2640   20.5620 N   0  0  0  0  0
   38.7410    8.0620   19.6740 C   0  0  0  0  0
   39.1750    7.3110   18.4070 C   0  0  0  0  0
   40.3620    7.4490   18.0940 O   0  0  0  0  0
   38.1900    9.3900   19.3050 C   0  0  0  0  0
   37.6290   10.1980   20.4590 C   0  0  0  0  0
   36.4230    9.5560   21.1200 C   0  0  0  0  0
   35.4870    9.1800   20.4000 O   0  5  0  0  0
   36.4150    9.4710   22.3470 O   0  0  0  0  0
   38.9939    9.9844   18.8464 H   0  0  0  0  0
   38.3400    6.4580   17.6920 N   0  0  0  0  0
   37.0330    6.0690   18.2190 C   0  0  0  0  0
   37.3680    5.0290   19.2960 C   0  0  0  0  0
   36.2460    4.7760   20.2680 C   0  0  0  0  0
   35.1220    3.9400   19.7130 C   0  0  0  0  0
   35.2460    2.4610   20.1590 C   0  0  0  0  0
   38.6840    5.9690   16.3670 C   0  0  0  0  0
   37.8280    6.7260   15.3260 C   0  0  0  0  0
   38.3260    8.2080   15.1210 C   0  0  0  0  0
   37.7080    9.0520   13.9690 C   0  0  0  0  0
   38.5800   10.3120   13.7740 C   0  0  0  0  0
   37.3921    9.2398   18.5629 H   0  0  0  0  0
   38.4109   10.3136   21.2240 H   0  0  0  0  0
   37.3451   11.1940   20.0884 H   0  0  0  0  0
   41.9393    6.1773   23.4354 H   0  0  0  0  0
   41.3580    8.9197   22.4480 H   0  0  0  0  0
   42.8455    6.5970   21.1187 H   0  0  0  0  0
   42.7022    8.2837   20.5027 H   0  0  0  0  0
   44.3786    6.1144   23.0683 H   0  0  0  0  0
   40.3738    9.1379   20.4894 H   0  0  0  0  0
   43.8421   10.0537   21.5021 H   0  0  0  0  0
   46.3765    6.8349   24.3432 H   0  0  0  0  0
   45.8146   10.7652   22.7453 H   0  0  0  0  0
   36.5130    6.9284   18.6673 H   0  0  0  0  0
   36.4062    5.6184   17.4355 H   0  0  0  0  0
   37.6072    4.0750   18.8036 H   0  0  0  0  0
   38.2367    5.3827   19.8706 H   0  0  0  0  0
   36.6523    4.2496   21.1442 H   0  0  0  0  0
   35.8222    5.7435   20.5749 H   0  0  0  0  0
   34.1612    4.3332   20.0766 H   0  0  0  0  0
   35.1498    3.9750   18.6139 H   0  0  0  0  0
   34.4092    1.8874   19.7339 H   0  0  0  0  0
   36.1930    2.0371   19.7936 H   0  0  0  0  0
   35.2044    2.3953   21.2562 H   0  0  0  0  0
   39.7485    6.1543   16.1613 H   0  0  0  0  0
   38.4700    4.8925   16.2950 H   0  0  0  0  0
   37.8889    6.2049   14.3592 H   0  0  0  0  0
   36.7837    6.7576   15.6699 H   0  0  0  0  0
   38.1249    8.7564   16.0531 H   0  0  0  0  0
   39.4094    8.1700   14.9345 H   0  0  0  0  0
   37.6991    8.4700   13.0357 H   0  0  0  0  0
   36.6841    9.3574   14.2303 H   0  0  0  0  0
   38.1548   10.9195   12.9615 H   0  0  0  0  0
   38.5906   10.9076   14.6987 H   0  0  0  0  0
   39.6056   10.0203   13.5040 H   0  0  0  0  0
   41.8344    5.6479   25.2943 H   0  0  0  0  0
   42.4446    6.9333   26.3820 H   0  0  0  0  0
   40.6973    6.4956   26.3879 H   0  0  0  0  0
  1  2  2  0  0  0
  1  3  1  0  0  0
 23 24  1  0  0  0
 24 27  1  0  0  0
 24 25  1  0  0  0
 25 26  2  0  0  0
 27 28  1  0  0  0
 28 29  1  0  0  0
 29 31  2  0  0  0
 29 30  1  0  0  0
 23 52  1  0  0  0
  4  1  1  0  0  0
  5  4  1  0  0  0
 24 22  1  0  0  0
  6  5  1  0  0  0
  5  8  1  0  0  0
  6  7  2  0  0  0
  6 23  1  0  0  0
  8  9  1  0  0  0
  9 10  4  0  0  0
  9 11  4  0  0  0
 10 12  4  0  0  0
 11 13  4  0  0  0
 12 14  4  0  0  0
 13 14  4  0  0  0
 14 15  1  0  0  0
 15 16  1  0  0  0
 15 17  1  0  0  0
 15 18  1  0  0  0
 18 19  2  0  0  0
 18 20  1  0  0  0
 18 21  1  0  0  0
 25 33  1  0  0  0
 33 34  1  0  0  0
 33 39  1  0  0  0
 34 35  1  0  0  0
 35 36  1  0  0  0
 36 37  1  0  0  0
 37 38  1  0  0  0
 39 40  1  0  0  0
 40 41  1  0  0  0
 41 42  1  0  0  0
 42 43  1  0  0  0
 27 32  1  0  0  0
 27 44  1  0  0  0
 28 45  1  0  0  0
 28 46  1  0  0  0
  4 47  1  0  0  0
  5 48  1  0  0  0
  8 49  1  0  0  0
  8 50  1  0  0  0
 10 51  1  0  0  0
 11 53  1  0  0  0
 12 54  1  0  0  0
 13 55  1  0  0  0
 34 56  1  0  0  0
 34 57  1  0  0  0
 35 58  1  0  0  0
 35 59  1  0  0  0
 36 60  1  0  0  0
 36 61  1  0  0  0
 37 62  1  0  0  0
 37 63  1  0  0  0
 38 64  1  0  0  0
 38 65  1  0  0  0
 38 66  1  0  0  0
 39 67  1  0  0  0
 39 68  1  0  0  0
 40 69  1  0  0  0
 40 70  1  0  0  0
 41 71  1  0  0  0
 41 72  1  0  0  0
 42 73  1  0  0  0
 42 74  1  0  0  0
 43 75  1  0  0  0
 43 76  1  0  0  0
 43 77  1  0  0  0
  3 78  1  0  0  0
  3 79  1  0  0  0
  3 80  1  0  0  0
M  END
$$$$
