### 
### Created by X-TOOL on Tue Oct 25 01:25:53 2005
### 

@<TRIPOS>MOLECULE
1a08_ligand
   80    80     1     0     0
SMALL
GAST_HUCK


@<TRIPOS>ATOM
      1 C          41.3330    7.6410   24.6710 C.2       1 SUB1        0.175
      2 O          41.0370    8.8260   24.9230 O.2       1 SUB1       -0.397
      3 CH3        41.5940    6.6140   25.7620 C.3       1 SUB1        0.026
      4 N          41.6110    7.1210   23.4750 N.am      1 SUB1       -0.263
      5 CA         41.4640    7.8470   22.2290 C.3       1 SUB1        0.145
      6 C          40.2360    7.3890   21.4600 C.2       1 SUB1        0.207
      7 O          39.7050    6.2960   21.6760 O.2       1 SUB1       -0.394
      8 CB         42.7500    7.6550   21.4040 C.3       1 SUB1        0.037
      9 CG         43.9840    8.0510   22.2010 C.ar      1 SUB1       -0.007
     10 CD1        44.7090    7.1450   23.0070 C.ar      1 SUB1       -0.028
     11 CD2        44.3870    9.3440   22.1140 C.ar      1 SUB1       -0.028
     12 CE1        45.8310    7.5360   23.7220 C.ar      1 SUB1       -0.040
     13 CE2        45.4940    9.7320   22.8140 C.ar      1 SUB1       -0.040
     14 CZ         46.2270    8.8610   23.6100 C.ar      1 SUB1        0.011
     15 C1         47.4870    9.4350   24.2980 C.3       1 SUB1        0.267
     16 F1         48.6090    8.6190   24.1110 F         1 SUB1       -0.252
     17 F2         47.8940   10.4980   23.4710 F         1 SUB1       -0.252
     18 P          47.4770    9.8790   26.0920 P.3       1 SUB1        0.099
     19 O1P        48.7700   10.5430   26.2560 O.co2     1 SUB1       -0.548
     20 O2P        47.4560    8.5560   26.7380 O.co2     1 SUB1       -0.548
     21 O3P        46.2490   10.7280   26.2340 O.co2     1 SUB1       -0.548
     22 H241       37.9687    7.4642   20.1800 H         1 SUB1        0.080
     23 N          39.8530    8.2640   20.5620 N.am      1 SUB1       -0.263
     24 CA         38.7410    8.0620   19.6740 C.3       1 SUB1        0.134
     25 C          39.1750    7.3110   18.4070 C.2       1 SUB1        0.204
     26 O          40.3620    7.4490   18.0940 O.2       1 SUB1       -0.394
     27 CB         38.1900    9.3900   19.3050 C.3       1 SUB1       -0.001
     28 CG         37.6290   10.1980   20.4590 C.3       1 SUB1       -0.010
     29 CD         36.4230    9.5560   21.1200 C.2       1 SUB1        0.028
     30 OE1        35.4870    9.1800   20.4000 O.co2     1 SUB1       -0.567
     31 OE2        36.4150    9.4710   22.3470 O.co2     1 SUB1       -0.567
     32 H271       38.9939    9.9844   18.8464 H         1 SUB1        0.035
     33 N          38.3400    6.4580   17.6920 N.am      1 SUB1       -0.271
     34 C1         37.0330    6.0690   18.2190 C.3       1 SUB1        0.034
     35 C2         37.3680    5.0290   19.2960 C.3       1 SUB1       -0.032
     36 C3         36.2460    4.7760   20.2680 C.3       1 SUB1       -0.052
     37 C4         35.1220    3.9400   19.7130 C.3       1 SUB1       -0.056
     38 C5         35.2460    2.4610   20.1590 C.3       1 SUB1       -0.065
     39 C1'        38.6840    5.9690   16.3670 C.3       1 SUB1        0.034
     40 C2'        37.8280    6.7260   15.3260 C.3       1 SUB1       -0.032
     41 C3'        38.3260    8.2080   15.1210 C.3       1 SUB1       -0.052
     42 C4'        37.7080    9.0520   13.9690 C.3       1 SUB1       -0.056
     43 C5'        38.5800   10.3120   13.7740 C.3       1 SUB1       -0.065
     44 H272       37.3921    9.2398   18.5629 H         1 SUB1        0.035
     45 H281       38.4109   10.3136   21.2240 H         1 SUB1        0.049
     46 H282       37.3451   11.1940   20.0884 H         1 SUB1        0.049
     47 H41        41.9393    6.1773   23.4354 H         1 SUB1        0.189
     48 H51        41.3580    8.9197   22.4480 H         1 SUB1        0.083
     49 H81        42.8455    6.5970   21.1187 H         1 SUB1        0.055
     50 H82        42.7022    8.2837   20.5027 H         1 SUB1        0.055
     51 H101       44.3786    6.1144   23.0683 H         1 SUB1        0.065
     52 H231       40.3738    9.1379   20.4894 H         1 SUB1        0.188
     53 H111       43.8421   10.0537   21.5021 H         1 SUB1        0.065
     54 H121       46.3765    6.8349   24.3432 H         1 SUB1        0.083
     55 H131       45.8146   10.7652   22.7453 H         1 SUB1        0.083
     56 H341       36.5130    6.9284   18.6673 H         1 SUB1        0.052
     57 H342       36.4062    5.6184   17.4355 H         1 SUB1        0.052
     58 H351       37.6072    4.0750   18.8036 H         1 SUB1        0.029
     59 H352       38.2367    5.3827   19.8706 H         1 SUB1        0.029
     60 H361       36.6523    4.2496   21.1442 H         1 SUB1        0.027
     61 H362       35.8222    5.7435   20.5749 H         1 SUB1        0.027
     62 H371       34.1612    4.3332   20.0766 H         1 SUB1        0.026
     63 H372       35.1498    3.9750   18.6139 H         1 SUB1        0.026
     64 H381       34.4092    1.8874   19.7339 H         1 SUB1        0.023
     65 H382       36.1930    2.0371   19.7936 H         1 SUB1        0.023
     66 H383       35.2044    2.3953   21.2562 H         1 SUB1        0.023
     67 H391       39.7485    6.1543   16.1613 H         1 SUB1        0.052
     68 H392       38.4700    4.8925   16.2950 H         1 SUB1        0.052
     69 H401       37.8889    6.2049   14.3592 H         1 SUB1        0.029
     70 H402       36.7837    6.7576   15.6699 H         1 SUB1        0.029
     71 H411       38.1249    8.7564   16.0531 H         1 SUB1        0.027
     72 H412       39.4094    8.1700   14.9345 H         1 SUB1        0.027
     73 H421       37.6991    8.4700   13.0357 H         1 SUB1        0.026
     74 H422       36.6841    9.3574   14.2303 H         1 SUB1        0.026
     75 H431       38.1548   10.9195   12.9615 H         1 SUB1        0.023
     76 H432       38.5906   10.9076   14.6987 H         1 SUB1        0.023
     77 H433       39.6056   10.0203   13.5040 H         1 SUB1        0.023
     78 H31        41.8344    5.6479   25.2943 H         1 SUB1        0.047
     79 H32        42.4446    6.9333   26.3820 H         1 SUB1        0.047
     80 H33        40.6973    6.4956   26.3879 H         1 SUB1        0.047
@<TRIPOS>BOND
     1    1    2 2  
     2    1    3 1  
     3   23   24 1  
     4   24   27 1  
     5   24   25 1  
     6   25   26 2  
     7   27   28 1  
     8   28   29 1  
     9   29   31 2  
    10   29   30 2  
    11   23   52 1  
    12    4    1 am 
    13    5    4 1  
    14   24   22 1  
    15    6    5 1  
    16    5    8 1  
    17    6    7 2  
    18    6   23 am 
    19    8    9 1  
    20    9   10 ar 
    21    9   11 ar 
    22   10   12 ar 
    23   11   13 ar 
    24   12   14 ar 
    25   13   14 ar 
    26   14   15 1  
    27   15   16 1  
    28   15   17 1  
    29   15   18 1  
    30   18   19 2  
    31   18   20 2  
    32   18   21 2  
    33   25   33 am 
    34   33   34 1  
    35   33   39 1  
    36   34   35 1  
    37   35   36 1  
    38   36   37 1  
    39   37   38 1  
    40   39   40 1  
    41   40   41 1  
    42   41   42 1  
    43   42   43 1  
    44   27   32 1  
    45   27   44 1  
    46   28   45 1  
    47   28   46 1  
    48    4   47 1  
    49    5   48 1  
    50    8   49 1  
    51    8   50 1  
    52   10   51 1  
    53   11   53 1  
    54   12   54 1  
    55   13   55 1  
    56   34   56 1  
    57   34   57 1  
    58   35   58 1  
    59   35   59 1  
    60   36   60 1  
    61   36   61 1  
    62   37   62 1  
    63   37   63 1  
    64   38   64 1  
    65   38   65 1  
    66   38   66 1  
    67   39   67 1  
    68   39   68 1  
    69   40   69 1  
    70   40   70 1  
    71   41   71 1  
    72   41   72 1  
    73   42   73 1  
    74   42   74 1  
    75   43   75 1  
    76   43   76 1  
    77   43   77 1  
    78    3   78 1  
    79    3   79 1  
    80    3   80 1  
@<TRIPOS>SUBSTRUCTURE
     1 SUB1        1 GROUP

