2cbv_ligand
  -I-interpret- 

 25 26  0  0  0  0  0  0  0  0999 V2000
    0.5890   12.8770   10.4180 O   0  0  0  0  0
    0.0470   11.6450    9.9450 C   0  0  0  0  0
   -1.0440   11.1990   10.7870 N   0  0  0  0  0
    1.0120   10.4680   10.0590 C   0  0  0  0  0
    0.1160    9.2460   10.2830 C   0  0  0  0  0
   -1.3000    9.8280   10.4470 C   0  0  0  0  0
   -0.4540   11.7630    8.4880 C   0  0  0  0  0
    0.6860   12.0520    7.6640 O   0  0  0  0  0
   -1.1870   10.4680    8.0340 C   0  0  0  0  0
   -1.9360   10.6990    6.8430 O   0  0  0  0  0
   -2.0920    9.8960    9.1280 C   0  0  0  0  0
   -2.5690    8.5760    8.7990 O   0  0  0  0  0
    1.3085   13.1501    9.8441 H   0  0  0  0  0
   -1.8751   11.7706   10.6352 H   0  0  0  0  0
    1.7229   10.6042   10.8740 H   0  0  0  0  0
    1.6278   10.3608    9.1661 H   0  0  0  0  0
    0.4234    8.6695   11.1555 H   0  0  0  0  0
    0.1734    8.5409    9.4538 H   0  0  0  0  0
   -1.8682    9.2233   11.1538 H   0  0  0  0  0
   -1.1872   12.5648    8.4004 H   0  0  0  0  0
    1.0857   12.8765    7.9504 H   0  0  0  0  0
   -0.4153    9.7259    7.8293 H   0  0  0  0  0
   -2.3787    9.8880    6.5824 H   0  0  0  0  0
   -2.9578   10.5511    9.2246 H   0  0  0  0  0
   -3.1309    8.2541    9.5078 H   0  0  0  0  0
  1  2  1  0  0  0
  2  3  1  0  0  0
  2  4  1  0  0  0
  2  7  1  0  0  0
  3  6  1  0  0  0
  4  5  1  0  0  0
  5  6  1  0  0  0
  6 11  1  0  0  0
  7  8  1  0  0  0
  7  9  1  0  0  0
  9 10  1  0  0  0
  9 11  1  0  0  0
 11 12  1  0  0  0
  1 13  1  0  0  0
  3 14  1  0  0  0
  4 15  1  0  0  0
  4 16  1  0  0  0
  5 17  1  0  0  0
  5 18  1  0  0  0
  6 19  1  0  0  0
  7 20  1  0  0  0
  8 21  1  0  0  0
  9 22  1  0  0  0
 10 23  1  0  0  0
 11 24  1  0  0  0
 12 25  1  0  0  0
M  END
$$$$
