### 
### Created by X-TOOL on Sun Jun  3 11:18:45 2007
### 

@<TRIPOS>MOLECULE
2cbv_ligand
   25    26     1     0     0
SMALL
GAST_HUCK


@<TRIPOS>ATOM
      1 O2          0.5890   12.8770   10.4180 O.3       1 SUB1       -0.372
      2 C2          0.0470   11.6450    9.9450 C.3       1 SUB1        0.146
      3 N1         -1.0440   11.1990   10.7870 N.3       1 SUB1       -0.282
      4 C8          1.0120   10.4680   10.0590 C.3       1 SUB1       -0.006
      5 C7          0.1160    9.2460   10.2830 C.3       1 SUB1       -0.031
      6 C6         -1.3000    9.8280   10.4470 C.3       1 SUB1        0.039
      7 C3         -0.4540   11.7630    8.4880 C.3       1 SUB1        0.125
      8 O3          0.6860   12.0520    7.6640 O.3       1 SUB1       -0.385
      9 C4         -1.1870   10.4680    8.0340 C.3       1 SUB1        0.112
     10 O4         -1.9360   10.6990    6.8430 O.3       1 SUB1       -0.387
     11 C5         -2.0920    9.8960    9.1280 C.3       1 SUB1        0.099
     12 O5         -2.5690    8.5760    8.7990 O.3       1 SUB1       -0.388
     13 H           1.3085   13.1501    9.8441 H         1 SUB1        0.212
     14 H          -1.8751   11.7706   10.6352 H         1 SUB1        0.125
     15 H           1.7229   10.6042   10.8740 H         1 SUB1        0.031
     16 H           1.6278   10.3608    9.1661 H         1 SUB1        0.031
     17 H           0.4234    8.6695   11.1555 H         1 SUB1        0.028
     18 H           0.1734    8.5409    9.4538 H         1 SUB1        0.028
     19 H          -1.8682    9.2233   11.1538 H         1 SUB1        0.049
     20 H          -1.1872   12.5648    8.4004 H         1 SUB1        0.066
     21 H           1.0857   12.8765    7.9504 H         1 SUB1        0.210
     22 H          -0.4153    9.7259    7.8293 H         1 SUB1        0.065
     23 H          -2.3787    9.8880    6.5824 H         1 SUB1        0.210
     24 H          -2.9578   10.5511    9.2246 H         1 SUB1        0.064
     25 H          -3.1309    8.2541    9.5078 H         1 SUB1        0.210
@<TRIPOS>BOND
     1    1    2 1  
     2    2    3 1  
     3    2    4 1  
     4    2    7 1  
     5    3    6 1  
     6    4    5 1  
     7    5    6 1  
     8    6   11 1  
     9    7    8 1  
    10    7    9 1  
    11    9   10 1  
    12    9   11 1  
    13   11   12 1  
    14    1   13 1  
    15    3   14 1  
    16    4   15 1  
    17    4   16 1  
    18    5   17 1  
    19    5   18 1  
    20    6   19 1  
    21    7   20 1  
    22    8   21 1  
    23    9   22 1  
    24   10   23 1  
    25   11   24 1  
    26   12   25 1  
@<TRIPOS>SUBSTRUCTURE
     1 SUB1        1 GROUP

