### 
### Created by X-TOOL on Sun Jun  3 11:52:22 2007
### 

@<TRIPOS>MOLECULE
2avo_ligand
   92    96     1     0     0
SMALL
GAST_HUCK


@<TRIPOS>ATOM
      1 N1         22.5250   34.9020   16.3580 N.3       1 SUB1       -0.285
      2 C1         21.1430   34.7970   15.6910 C.3       1 SUB1        0.034
      3 C2         20.3570   33.6320   16.2770 C.3       1 SUB1        0.114
      4 C3         19.0190   33.6030   15.5830 C.2       1 SUB1        0.195
      5 O1         18.9240   33.2450   14.3990 O.2       1 SUB1       -0.395
      6 N2         18.0010   34.0240   16.3140 N.am      1 SUB1       -0.280
      7 C4         16.5970   34.0720   15.8760 C.3       1 SUB1        0.045
      8 C5         15.8010   34.6960   17.0450 C.3       1 SUB1       -0.040
      9 C6         16.1210   32.7130   15.5550 C.3       1 SUB1       -0.040
     10 C7         16.4740   34.9770   14.6930 C.3       1 SUB1       -0.040
     11 N3         21.1430   32.3680   16.0110 N.3       1 SUB1       -0.278
     12 C8         22.4640   32.4830   16.6060 C.3       1 SUB1        0.014
     13 C9         23.2100   33.6840   16.0630 C.3       1 SUB1        0.014
     14 C10        20.4760   31.2050   16.5680 C.3       1 SUB1        0.028
     15 C11        20.6520   29.9560   15.6700 C.3       1 SUB1        0.071
     16 O2         20.6020   28.7860   16.4750 O.3       1 SUB1       -0.390
     17 C12        19.5260   29.9070   14.6500 C.3       1 SUB1       -0.004
     18 C13        19.5970   28.7020   13.6700 C.3       1 SUB1        0.061
     19 C14        18.2770   28.6450   12.8690 C.3       1 SUB1        0.001
     20 C15        18.2670   27.6110   11.7790 C.ar      1 SUB1       -0.041
     21 C16        18.3770   26.2530   12.0960 C.ar      1 SUB1       -0.060
     22 C17        18.4040   25.3120   11.0670 C.ar      1 SUB1       -0.069
     23 C18        18.2990   25.6990    9.7610 C.ar      1 SUB1       -0.069
     24 C19        18.1340   27.0410    9.4500 C.ar      1 SUB1       -0.069
     25 C20        18.1150   27.9830   10.4700 C.ar      1 SUB1       -0.060
     26 C21        20.7260   28.8310   12.6810 C.2       1 SUB1        0.183
     27 O3         20.9940   29.9020   12.0950 O.2       1 SUB1       -0.396
     28 N4         21.4030   27.7200   12.4420 N.am      1 SUB1       -0.271
     29 C22        22.3540   27.6380   11.3570 C.3       1 SUB1        0.101
     30 C23        22.2660   26.2860   10.6130 C.3       1 SUB1        0.095
     31 O4         22.1710   25.2290   11.6020 O.3       1 SUB1       -0.386
     32 C24        23.6440   26.1880    9.9430 C.3       1 SUB1        0.009
     33 C25        24.6190   26.9040   10.8570 C.ar      1 SUB1       -0.036
     34 C26        25.9810   26.8900   10.9960 C.ar      1 SUB1       -0.067
     35 C27        26.5430   27.6770   11.9590 C.ar      1 SUB1       -0.075
     36 C28        25.8200   28.5330   12.7630 C.ar      1 SUB1       -0.075
     37 C29        24.4560   28.5560   12.6350 C.ar      1 SUB1       -0.065
     38 C30        23.8140   27.7860   11.7220 C.ar      1 SUB1       -0.013
     39 C31        23.2250   36.0350   15.7360 C.3       1 SUB1        0.039
     40 C32        22.6540   37.3850   16.1160 C.ar      1 SUB1       -0.001
     41 C33        22.5910   37.7530   17.4880 C.ar      1 SUB1        0.014
     42 N5         22.0950   39.0100   17.8650 N.ar      1 SUB1       -0.304
     43 C34        21.6760   39.8080   16.8410 C.ar      1 SUB1        0.004
     44 C35        21.6790   39.4910   15.5000 C.ar      1 SUB1       -0.040
     45 C36        22.1360   38.2430   15.1600 C.ar      1 SUB1       -0.039
     46 H          21.2767   34.6326   14.6218 H         1 SUB1        0.047
     47 H          20.5926   35.7210   15.8680 H         1 SUB1        0.047
     48 H          20.2007   33.7268   17.3516 H         1 SUB1        0.072
     49 H          18.2060   34.3423   17.2611 H         1 SUB1        0.186
     50 H          14.7470   34.7564   16.7739 H         1 SUB1        0.025
     51 H          15.9140   34.0738   17.9328 H         1 SUB1        0.025
     52 H          16.1827   35.6963   17.2497 H         1 SUB1        0.025
     53 H          16.2366   32.0729   16.4296 H         1 SUB1        0.025
     54 H          15.0696   32.7554   15.2706 H         1 SUB1        0.025
     55 H          16.7063   32.3102   14.7284 H         1 SUB1        0.025
     56 H          15.4232   35.0765   14.4210 H         1 SUB1        0.025
     57 H          16.8803   35.9570   14.9431 H         1 SUB1        0.025
     58 H          17.0292   34.5552   13.8552 H         1 SUB1        0.025
     59 H          23.0320   31.5842   16.3658 H         1 SUB1        0.044
     60 H          22.3498   32.6036   17.6833 H         1 SUB1        0.044
     61 H          24.1944   33.7194   16.5298 H         1 SUB1        0.044
     62 H          23.2853   33.5834   14.9803 H         1 SUB1        0.044
     63 H          19.4111   31.4247   16.6444 H         1 SUB1        0.045
     64 H          20.9162   30.9914   17.5420 H         1 SUB1        0.045
     65 H          21.6122   30.0088   15.1568 H         1 SUB1        0.061
     66 H          20.7111   28.0113   15.9187 H         1 SUB1        0.210
     67 H          19.6006   30.8128   14.0483 H         1 SUB1        0.032
     68 H          18.5942   29.8108   15.2074 H         1 SUB1        0.032
     69 H          19.7613   27.8031   14.2643 H         1 SUB1        0.056
     70 H          18.1454   29.6170   12.3935 H         1 SUB1        0.045
     71 H          17.4847   28.3830   13.5702 H         1 SUB1        0.045
     72 H          18.4409   25.9337   13.1362 H         1 SUB1        0.056
     73 H          18.5102   24.2543   11.3078 H         1 SUB1        0.060
     74 H          18.3447   24.9554    8.9654 H         1 SUB1        0.056
     75 H          18.0201   27.3537    8.4121 H         1 SUB1        0.060
     76 H          17.9768   29.0360   10.2246 H         1 SUB1        0.056
     77 H          21.2507   26.9046   13.0356 H         1 SUB1        0.188
     78 H          22.0565   28.4933   10.7503 H         1 SUB1        0.073
     79 H          21.4243   26.2081    9.9249 H         1 SUB1        0.066
     80 H          22.1154   24.3801   11.1571 H         1 SUB1        0.210
     81 H          23.6300   26.6443    8.9532 H         1 SUB1        0.044
     82 H          23.9353   25.1474    9.8001 H         1 SUB1        0.044
     83 H          26.6014   26.2655   10.3532 H         1 SUB1        0.054
     84 H          27.6226   27.6262   12.1004 H         1 SUB1        0.054
     85 H          26.3226   29.1772   13.4845 H         1 SUB1        0.054
     86 H          23.8724   29.2096   13.2833 H         1 SUB1        0.054
     87 H          23.1215   35.9293   14.6561 H         1 SUB1        0.060
     88 H          24.2586   36.0091   16.0811 H         1 SUB1        0.060
     89 H          22.9304   37.0537   18.2521 H         1 SUB1        0.076
     90 H          21.3012   40.7954   17.1106 H         1 SUB1        0.077
     91 H          21.3347   40.1981   14.7454 H         1 SUB1        0.069
     92 H          22.0907   37.9211   14.1196 H         1 SUB1        0.068
@<TRIPOS>BOND
     1    1    2 1  
     2    1   13 1  
     3    1   39 1  
     4    2    3 1  
     5    3    4 1  
     6    3   11 1  
     7    4    5 2  
     8    4    6 am 
     9    6    7 1  
    10    7    8 1  
    11    7    9 1  
    12    7   10 1  
    13   11   12 1  
    14   11   14 1  
    15   12   13 1  
    16   14   15 1  
    17   15   16 1  
    18   15   17 1  
    19   17   18 1  
    20   18   19 1  
    21   18   26 1  
    22   19   20 1  
    23   20   21 ar 
    24   20   25 ar 
    25   21   22 ar 
    26   22   23 ar 
    27   23   24 ar 
    28   24   25 ar 
    29   26   27 2  
    30   26   28 am 
    31   28   29 1  
    32   29   30 1  
    33   29   38 1  
    34   30   31 1  
    35   30   32 1  
    36   32   33 1  
    37   33   34 ar 
    38   33   38 ar 
    39   34   35 ar 
    40   35   36 ar 
    41   36   37 ar 
    42   37   38 ar 
    43   39   40 1  
    44   40   41 ar 
    45   40   45 ar 
    46   41   42 ar 
    47   42   43 ar 
    48   43   44 ar 
    49   44   45 ar 
    50    2   46 1  
    51    2   47 1  
    52    3   48 1  
    53    6   49 1  
    54    8   50 1  
    55    8   51 1  
    56    8   52 1  
    57    9   53 1  
    58    9   54 1  
    59    9   55 1  
    60   10   56 1  
    61   10   57 1  
    62   10   58 1  
    63   12   59 1  
    64   12   60 1  
    65   13   61 1  
    66   13   62 1  
    67   14   63 1  
    68   14   64 1  
    69   15   65 1  
    70   16   66 1  
    71   17   67 1  
    72   17   68 1  
    73   18   69 1  
    74   19   70 1  
    75   19   71 1  
    76   21   72 1  
    77   22   73 1  
    78   23   74 1  
    79   24   75 1  
    80   25   76 1  
    81   28   77 1  
    82   29   78 1  
    83   30   79 1  
    84   31   80 1  
    85   32   81 1  
    86   32   82 1  
    87   34   83 1  
    88   35   84 1  
    89   36   85 1  
    90   37   86 1  
    91   39   87 1  
    92   39   88 1  
    93   41   89 1  
    94   43   90 1  
    95   44   91 1  
    96   45   92 1  
@<TRIPOS>SUBSTRUCTURE
     1 SUB1        1 GROUP

