2avo_ligand
  -I-interpret- 

 92 96  0  0  0  0  0  0  0  0999 V2000
   22.5250   34.9020   16.3580 N   0  0  0  0  0
   21.1430   34.7970   15.6910 C   0  0  0  0  0
   20.3570   33.6320   16.2770 C   0  0  0  0  0
   19.0190   33.6030   15.5830 C   0  0  0  0  0
   18.9240   33.2450   14.3990 O   0  0  0  0  0
   18.0010   34.0240   16.3140 N   0  0  0  0  0
   16.5970   34.0720   15.8760 C   0  0  0  0  0
   15.8010   34.6960   17.0450 C   0  0  0  0  0
   16.1210   32.7130   15.5550 C   0  0  0  0  0
   16.4740   34.9770   14.6930 C   0  0  0  0  0
   21.1430   32.3680   16.0110 N   0  0  0  0  0
   22.4640   32.4830   16.6060 C   0  0  0  0  0
   23.2100   33.6840   16.0630 C   0  0  0  0  0
   20.4760   31.2050   16.5680 C   0  0  0  0  0
   20.6520   29.9560   15.6700 C   0  0  0  0  0
   20.6020   28.7860   16.4750 O   0  0  0  0  0
   19.5260   29.9070   14.6500 C   0  0  0  0  0
   19.5970   28.7020   13.6700 C   0  0  0  0  0
   18.2770   28.6450   12.8690 C   0  0  0  0  0
   18.2670   27.6110   11.7790 C   0  0  0  0  0
   18.3770   26.2530   12.0960 C   0  0  0  0  0
   18.4040   25.3120   11.0670 C   0  0  0  0  0
   18.2990   25.6990    9.7610 C   0  0  0  0  0
   18.1340   27.0410    9.4500 C   0  0  0  0  0
   18.1150   27.9830   10.4700 C   0  0  0  0  0
   20.7260   28.8310   12.6810 C   0  0  0  0  0
   20.9940   29.9020   12.0950 O   0  0  0  0  0
   21.4030   27.7200   12.4420 N   0  0  0  0  0
   22.3540   27.6380   11.3570 C   0  0  0  0  0
   22.2660   26.2860   10.6130 C   0  0  0  0  0
   22.1710   25.2290   11.6020 O   0  0  0  0  0
   23.6440   26.1880    9.9430 C   0  0  0  0  0
   24.6190   26.9040   10.8570 C   0  0  0  0  0
   25.9810   26.8900   10.9960 C   0  0  0  0  0
   26.5430   27.6770   11.9590 C   0  0  0  0  0
   25.8200   28.5330   12.7630 C   0  0  0  0  0
   24.4560   28.5560   12.6350 C   0  0  0  0  0
   23.8140   27.7860   11.7220 C   0  0  0  0  0
   23.2250   36.0350   15.7360 C   0  0  0  0  0
   22.6540   37.3850   16.1160 C   0  0  0  0  0
   22.5910   37.7530   17.4880 C   0  0  0  0  0
   22.0950   39.0100   17.8650 N   0  0  0  0  0
   21.6760   39.8080   16.8410 C   0  0  0  0  0
   21.6790   39.4910   15.5000 C   0  0  0  0  0
   22.1360   38.2430   15.1600 C   0  0  0  0  0
   21.2767   34.6326   14.6218 H   0  0  0  0  0
   20.5926   35.7210   15.8680 H   0  0  0  0  0
   20.2007   33.7268   17.3516 H   0  0  0  0  0
   18.2060   34.3423   17.2611 H   0  0  0  0  0
   14.7470   34.7564   16.7739 H   0  0  0  0  0
   15.9140   34.0738   17.9328 H   0  0  0  0  0
   16.1827   35.6963   17.2497 H   0  0  0  0  0
   16.2366   32.0729   16.4296 H   0  0  0  0  0
   15.0696   32.7554   15.2706 H   0  0  0  0  0
   16.7063   32.3102   14.7284 H   0  0  0  0  0
   15.4232   35.0765   14.4210 H   0  0  0  0  0
   16.8803   35.9570   14.9431 H   0  0  0  0  0
   17.0292   34.5552   13.8552 H   0  0  0  0  0
   23.0320   31.5842   16.3658 H   0  0  0  0  0
   22.3498   32.6036   17.6833 H   0  0  0  0  0
   24.1944   33.7194   16.5298 H   0  0  0  0  0
   23.2853   33.5834   14.9803 H   0  0  0  0  0
   19.4111   31.4247   16.6444 H   0  0  0  0  0
   20.9162   30.9914   17.5420 H   0  0  0  0  0
   21.6122   30.0088   15.1568 H   0  0  0  0  0
   20.7111   28.0113   15.9187 H   0  0  0  0  0
   19.6006   30.8128   14.0483 H   0  0  0  0  0
   18.5942   29.8108   15.2074 H   0  0  0  0  0
   19.7613   27.8031   14.2643 H   0  0  0  0  0
   18.1454   29.6170   12.3935 H   0  0  0  0  0
   17.4847   28.3830   13.5702 H   0  0  0  0  0
   18.4409   25.9337   13.1362 H   0  0  0  0  0
   18.5102   24.2543   11.3078 H   0  0  0  0  0
   18.3447   24.9554    8.9654 H   0  0  0  0  0
   18.0201   27.3537    8.4121 H   0  0  0  0  0
   17.9768   29.0360   10.2246 H   0  0  0  0  0
   21.2507   26.9046   13.0356 H   0  0  0  0  0
   22.0565   28.4933   10.7503 H   0  0  0  0  0
   21.4243   26.2081    9.9249 H   0  0  0  0  0
   22.1154   24.3801   11.1571 H   0  0  0  0  0
   23.6300   26.6443    8.9532 H   0  0  0  0  0
   23.9353   25.1474    9.8001 H   0  0  0  0  0
   26.6014   26.2655   10.3532 H   0  0  0  0  0
   27.6226   27.6262   12.1004 H   0  0  0  0  0
   26.3226   29.1772   13.4845 H   0  0  0  0  0
   23.8724   29.2096   13.2833 H   0  0  0  0  0
   23.1215   35.9293   14.6561 H   0  0  0  0  0
   24.2586   36.0091   16.0811 H   0  0  0  0  0
   22.9304   37.0537   18.2521 H   0  0  0  0  0
   21.3012   40.7954   17.1106 H   0  0  0  0  0
   21.3347   40.1981   14.7454 H   0  0  0  0  0
   22.0907   37.9211   14.1196 H   0  0  0  0  0
  1  2  1  0  0  0
  1 13  1  0  0  0
  1 39  1  0  0  0
  2  3  1  0  0  0
  3  4  1  0  0  0
  3 11  1  0  0  0
  4  5  2  0  0  0
  4  6  1  0  0  0
  6  7  1  0  0  0
  7  8  1  0  0  0
  7  9  1  0  0  0
  7 10  1  0  0  0
 11 12  1  0  0  0
 11 14  1  0  0  0
 12 13  1  0  0  0
 14 15  1  0  0  0
 15 16  1  0  0  0
 15 17  1  0  0  0
 17 18  1  0  0  0
 18 19  1  0  0  0
 18 26  1  0  0  0
 19 20  1  0  0  0
 20 21  4  0  0  0
 20 25  4  0  0  0
 21 22  4  0  0  0
 22 23  4  0  0  0
 23 24  4  0  0  0
 24 25  4  0  0  0
 26 27  2  0  0  0
 26 28  1  0  0  0
 28 29  1  0  0  0
 29 30  1  0  0  0
 29 38  1  0  0  0
 30 31  1  0  0  0
 30 32  1  0  0  0
 32 33  1  0  0  0
 33 34  4  0  0  0
 33 38  4  0  0  0
 34 35  4  0  0  0
 35 36  4  0  0  0
 36 37  4  0  0  0
 37 38  4  0  0  0
 39 40  1  0  0  0
 40 41  4  0  0  0
 40 45  4  0  0  0
 41 42  4  0  0  0
 42 43  4  0  0  0
 43 44  4  0  0  0
 44 45  4  0  0  0
  2 46  1  0  0  0
  2 47  1  0  0  0
  3 48  1  0  0  0
  6 49  1  0  0  0
  8 50  1  0  0  0
  8 51  1  0  0  0
  8 52  1  0  0  0
  9 53  1  0  0  0
  9 54  1  0  0  0
  9 55  1  0  0  0
 10 56  1  0  0  0
 10 57  1  0  0  0
 10 58  1  0  0  0
 12 59  1  0  0  0
 12 60  1  0  0  0
 13 61  1  0  0  0
 13 62  1  0  0  0
 14 63  1  0  0  0
 14 64  1  0  0  0
 15 65  1  0  0  0
 16 66  1  0  0  0
 17 67  1  0  0  0
 17 68  1  0  0  0
 18 69  1  0  0  0
 19 70  1  0  0  0
 19 71  1  0  0  0
 21 72  1  0  0  0
 22 73  1  0  0  0
 23 74  1  0  0  0
 24 75  1  0  0  0
 25 76  1  0  0  0
 28 77  1  0  0  0
 29 78  1  0  0  0
 30 79  1  0  0  0
 31 80  1  0  0  0
 32 81  1  0  0  0
 32 82  1  0  0  0
 34 83  1  0  0  0
 35 84  1  0  0  0
 36 85  1  0  0  0
 37 86  1  0  0  0
 39 87  1  0  0  0
 39 88  1  0  0  0
 41 89  1  0  0  0
 43 90  1  0  0  0
 44 91  1  0  0  0
 45 92  1  0  0  0
M  END
$$$$
