### 
### Created by X-TOOL on Mon Oct 24 22:55:34 2005
### 

@<TRIPOS>MOLECULE
1rnt_ligand
   36    38     1     0     0
SMALL
GAST_HUCK


@<TRIPOS>ATOM
      1 P          19.6640   35.4300   19.2180 P.3       1 SUB1        0.206
      2 O1P        20.7560   35.1860   18.0640 O.co2     1 SUB1       -0.535
      3 O2P        20.1580   36.6050   20.0270 O.co2     1 SUB1       -0.535
      4 O3P        18.4070   35.4500   18.5110 O.co2     1 SUB1       -0.535
      5 O5         17.7700   34.7750   23.9900 O.3       1 SUB1       -0.392
      6 C5         18.7590   33.9350   24.5860 C.3       1 SUB1        0.073
      7 C4         19.4260   33.0730   23.5410 C.3       1 SUB1        0.112
      8 O4         18.3890   32.3120   22.8240 O.3       1 SUB1       -0.354
      9 C3         20.2770   33.7640   22.4530 C.3       1 SUB1        0.117
     10 O3         21.2650   32.8320   22.0490 O.3       1 SUB1       -0.386
     11 C2         19.2330   33.9200   21.3340 C.3       1 SUB1        0.141
     12 O2         19.9030   34.1540   20.1060 O.3       1 SUB1       -0.313
     13 C1         18.5040   32.6080   21.4160 C.3       1 SUB1        0.147
     14 N9         17.1880   32.4230   20.8480 N.ar      1 SUB1       -0.283
     15 C8         16.7810   31.3610   20.1310 C.ar      1 SUB1        0.072
     16 N7         15.4920   31.2710   20.0350 N.ar      1 SUB1       -0.235
     17 C5         14.9600   32.3310   20.7650 C.ar      1 SUB1        0.218
     18 C6         13.6370   32.7550   21.0280 C.2       1 SUB1        0.351
     19 O6         12.5270   32.2980   20.6690 O.2       1 SUB1       -0.291
     20 N1         13.5740   33.8900   21.8150 N.am      1 SUB1       -0.100
     21 C2         14.7280   34.5260   22.2670 C.2       1 SUB1        0.406
     22 N2         14.4850   35.5960   23.0320 N.pl3     1 SUB1       -0.224
     23 N3         15.9480   34.1530   22.0390 N.2       1 SUB1       -0.054
     24 C4         16.0190   33.0400   21.2750 C.ar      1 SUB1        0.220
     25 H51        17.1106   34.2362   23.5688 H         1 SUB1        0.209
     26 H61        18.2795   33.2881   25.3354 H         1 SUB1        0.058
     27 H62        19.5186   34.5624   25.0752 H         1 SUB1        0.058
     28 H71        20.0846   32.3742   24.0775 H         1 SUB1        0.065
     29 H91        20.7175   34.7197   22.7733 H         1 SUB1        0.065
     30 H101       21.8112   33.2225   21.3769 H         1 SUB1        0.210
     31 H111       18.5453   34.7552   21.5326 H         1 SUB1        0.071
     32 H131       19.1536   31.8621   20.9348 H         1 SUB1        0.075
     33 H151       17.4633   30.6507   19.6783 H         1 SUB1        0.120
     34 H201       12.6804   34.2626   22.0653 H         1 SUB1        0.306
     35 H221       15.2686   36.1407   23.4195 H         1 SUB1        0.221
     36 H222       13.5143   35.8753   23.2335 H         1 SUB1        0.221
@<TRIPOS>BOND
     1    1    2 2  
     2    1    3 2  
     3    1    4 2  
     4   12    1 1  
     5    6    5 1  
     6    7    6 1  
     7    7    8 1  
     8    9    7 1  
     9    8   13 1  
    10    9   10 1  
    11   11    9 1  
    12   11   12 1  
    13   11   13 1  
    14   13   14 1  
    15   14   15 ar 
    16   14   24 ar 
    17   15   16 ar 
    18   16   17 ar 
    19   17   18 1  
    20   17   24 ar 
    21   18   19 2  
    22   18   20 am 
    23   20   21 am 
    24   21   22 1  
    25   21   23 2  
    26   23   24 1  
    27    5   25 1  
    28    6   26 1  
    29    6   27 1  
    30    7   28 1  
    31    9   29 1  
    32   10   30 1  
    33   11   31 1  
    34   13   32 1  
    35   15   33 1  
    36   20   34 1  
    37   22   35 1  
    38   22   36 1  
@<TRIPOS>SUBSTRUCTURE
     1 SUB1        1 GROUP

