### 
### Created by X-TOOL on Tue Oct 25 01:45:39 2005
### 

@<TRIPOS>MOLECULE
1hos_ligand
  105   108     1     0     0
SMALL
GAST_HUCK


@<TRIPOS>ATOM
      1 C1        -11.8060   14.2810   32.9730 C.2       1 SUB1        0.324
      2 O1        -12.5370   15.2660   33.2010 O.2       1 SUB1       -0.377
      3 OA1       -12.1400   13.0310   33.3080 O.3       1 SUB1       -0.251
      4 CB1       -13.5450   12.6790   33.3440 C.3       1 SUB1        0.111
      5 CG1       -13.6900   11.1780   33.2350 C.ar      1 SUB1       -0.013
      6 UNK_6     -12.8830   10.4570   32.3670 C.ar      1 SUB1       -0.058
      7 UNK_7     -14.6320   10.5430   34.0160 C.ar      1 SUB1       -0.058
      8 UNK_8     -13.0240    9.0890   32.2790 C.ar      1 SUB1       -0.068
      9 UNK_9     -14.7660    9.1800   33.9230 C.ar      1 SUB1       -0.068
     10 CZ1       -13.9670    8.4550   33.0610 C.ar      1 SUB1       -0.069
     11 N2        -10.6320   14.4110   32.3710 N.am      1 SUB1       -0.241
     12 CA2       -10.1320   15.6830   31.9370 C.3       1 SUB1        0.135
     13 CB2        -8.8190   16.0070   32.6870 C.3       1 SUB1       -0.006
     14 UNK_14     -8.1430   17.1840   32.0580 C.3       1 SUB1       -0.058
     15 UNK_15     -9.1020   16.5270   34.1000 C.3       1 SUB1       -0.058
     16 C2         -9.9450   15.3550   30.4590 C.2       1 SUB1        0.203
     17 O2         -9.1700   14.4630   30.1010 O.2       1 SUB1       -0.394
     18 N3        -10.6720   16.0660   29.5990 N.am      1 SUB1       -0.275
     19 CA3       -10.6500   15.9040   28.1450 C.3       1 SUB1        0.089
     20 CB3       -12.0690   15.6350   27.5810 C.3       1 SUB1        0.009
     21 CG3       -12.7020   14.4350   28.2690 C.ar      1 SUB1       -0.040
     22 UNK_22    -13.8110   14.6140   29.0700 C.ar      1 SUB1       -0.060
     23 UNK_23    -12.1110   13.1780   28.1650 C.ar      1 SUB1       -0.060
     24 UNK_24    -14.3120   13.5420   29.7680 C.ar      1 SUB1       -0.069
     25 UNK_25    -12.6260   12.1100   28.8710 C.ar      1 SUB1       -0.069
     26 CZ3       -13.7230   12.3040   29.6690 C.ar      1 SUB1       -0.069
     27 P3        -10.1060   17.5440   27.6070 P.3       1 SUB1        0.053
     28 O3        -10.3760   18.5240   28.6760 O.co2     1 SUB1       -0.551
     29 O3'       -10.8580   18.0890   26.4480 O.co2     1 SUB1       -0.551
     30 N4         -8.3910   17.3450   25.6990 N.am      1 SUB1       -0.275
     31 CA4        -8.3750   17.3260   27.1500 C.3       1 SUB1        0.089
     32 CB4        -7.5110   18.4950   27.6650 C.3       1 SUB1        0.009
     33 CG4        -6.0630   18.2030   27.3040 C.ar      1 SUB1       -0.040
     34 UNK_34     -5.4620   18.8730   26.2520 C.ar      1 SUB1       -0.060
     35 UNK_35     -5.3910   17.1840   27.9520 C.ar      1 SUB1       -0.060
     36 UNK_36     -4.2000   18.4990   25.8480 C.ar      1 SUB1       -0.069
     37 UNK_37     -4.1320   16.8220   27.5380 C.ar      1 SUB1       -0.069
     38 CZ4        -3.5410   17.4760   26.4840 C.ar      1 SUB1       -0.069
     39 N5         -6.6320   16.6110   23.1420 N.am      1 SUB1       -0.241
     40 CA5        -8.0490   16.4870   23.4280 C.3       1 SUB1        0.135
     41 CB5        -8.7050   15.2370   22.8400 C.3       1 SUB1       -0.006
     42 UNK_42    -10.1970   15.3290   23.1230 C.3       1 SUB1       -0.058
     43 UNK_43     -8.5050   15.1430   21.3500 C.3       1 SUB1       -0.058
     44 C5         -7.9900   16.3320   24.9310 C.2       1 SUB1        0.203
     45 O5         -7.5580   15.2850   25.4050 O.2       1 SUB1       -0.394
     46 CB6        -3.9600   16.8860   21.6550 C.3       1 SUB1        0.111
     47 CG6        -2.5840   16.8520   22.3450 C.ar      1 SUB1       -0.013
     48 UNK_48     -2.0150   18.0070   22.8560 C.ar      1 SUB1       -0.058
     49 UNK_49     -0.7700   17.9660   23.4600 C.ar      1 SUB1       -0.068
     50 UNK_50     -0.6390   15.6240   23.0590 C.ar      1 SUB1       -0.068
     51 UNK_51     -1.8820   15.6630   22.4540 C.ar      1 SUB1       -0.058
     52 CZ6        -0.0770   16.7810   23.5640 C.ar      1 SUB1       -0.069
     53 OA6        -4.8250   17.8490   22.3380 O.3       1 SUB1       -0.251
     54 C6         -6.1340   17.7180   22.5890 C.2       1 SUB1        0.324
     55 O6         -6.8680   18.6750   22.2980 O.2       1 SUB1       -0.377
     56 H111      -10.0840   13.6090   32.2060 H         1 SUB1        0.190
     57 H181      -11.2750   16.7710   29.9310 H         1 SUB1        0.186
     58 H41       -14.0654   13.1599   32.5027 H         1 SUB1        0.078
     59 H301       -8.7340   18.1690   25.2880 H         1 SUB1        0.186
     60 H391       -6.0450   15.8580   23.3710 H         1 SUB1        0.190
     61 H42       -13.9851   13.0222   34.2919 H         1 SUB1        0.078
     62 H61       -12.1442   10.9679   31.7602 H         1 SUB1        0.056
     63 H71       -15.2580   11.1119   34.6939 H         1 SUB1        0.056
     64 H81       -12.4001    8.5168   31.6020 H         1 SUB1        0.060
     65 H91       -15.5042    8.6691   34.5305 H         1 SUB1        0.060
     66 H101      -14.0818    7.3789   32.9984 H         1 SUB1        0.056
     67 H121      -10.8543   16.4991   32.0863 H         1 SUB1        0.080
     68 H131       -8.1671   15.1211   32.7038 H         1 SUB1        0.034
     69 H141       -7.2113   17.4044   32.5997 H         1 SUB1        0.023
     70 H142       -8.8096   18.0578   32.1045 H         1 SUB1        0.023
     71 H143       -7.9109   16.9553   31.0074 H         1 SUB1        0.023
     72 H151       -9.6085   15.7445   34.6841 H         1 SUB1        0.023
     73 H152       -9.7471   17.4160   34.0412 H         1 SUB1        0.023
     74 H153       -8.1537   16.7938   34.5893 H         1 SUB1        0.023
     75 H191       -9.9567   15.1092   27.8324 H         1 SUB1        0.064
     76 H201      -11.9969   15.4359   26.5016 H         1 SUB1        0.045
     77 H202      -12.6985   16.5212   27.7492 H         1 SUB1        0.045
     78 H221      -14.2809   15.5878   29.1476 H         1 SUB1        0.056
     79 H231      -11.2449   13.0384   27.5283 H         1 SUB1        0.056
     80 H241      -15.1805   13.6738   30.4032 H         1 SUB1        0.060
     81 H251      -12.1686   11.1301   28.7953 H         1 SUB1        0.060
     82 H261      -14.1314   11.4707   30.2292 H         1 SUB1        0.056
     83 H311       -7.9833   16.3726   27.5342 H         1 SUB1        0.064
     84 H321       -7.6133   18.5823   28.7567 H         1 SUB1        0.045
     85 H322       -7.8320   19.4340   27.1904 H         1 SUB1        0.045
     86 H341       -5.9796   19.6835   25.7517 H         1 SUB1        0.056
     87 H351       -5.8566   16.6711   28.7858 H         1 SUB1        0.056
     88 H361       -3.7236   19.0155   25.0225 H         1 SUB1        0.060
     89 H371       -3.6049   16.0205   28.0428 H         1 SUB1        0.060
     90 H381       -2.5510   17.1833   26.1534 H         1 SUB1        0.056
     91 H401       -8.6040   17.3830   23.1130 H         1 SUB1        0.080
     92 H411       -8.2828   14.3416   23.3196 H         1 SUB1        0.034
     93 H421      -10.7033   14.4429   22.7126 H         1 SUB1        0.023
     94 H422      -10.6045   16.2354   22.6514 H         1 SUB1        0.023
     95 H423      -10.3620   15.3752   24.2096 H         1 SUB1        0.023
     96 H431       -7.4298   15.0757   21.1279 H         1 SUB1        0.023
     97 H432       -8.9239   16.0379   20.8666 H         1 SUB1        0.023
     98 H433       -9.0152   14.2468   20.9673 H         1 SUB1        0.023
     99 H461       -3.8357   17.1859   20.6040 H         1 SUB1        0.078
    100 H462       -4.4172   15.8865   21.6996 H         1 SUB1        0.078
    101 H481       -2.5476   18.9483   22.7825 H         1 SUB1        0.056
    102 H491       -0.3359   18.8772   23.8555 H         1 SUB1        0.060
    103 H501       -0.1046   14.6841   23.1372 H         1 SUB1        0.060
    104 H511       -2.3130   14.7500   22.0595 H         1 SUB1        0.056
    105 H521        0.8982   16.7558   24.0366 H         1 SUB1        0.056
@<TRIPOS>BOND
     1    1   11 am 
     2    1    3 1  
     3    1    2 2  
     4    3    4 1  
     5    4    5 1  
     6    5    7 ar 
     7    5    6 ar 
     8    6    8 ar 
     9    8   10 ar 
    10   10    9 ar 
    11    9    7 ar 
    12   11   56 1  
    13   11   12 1  
    14   12   16 1  
    15   12   13 1  
    16   13   15 1  
    17   13   14 1  
    18   16   18 am 
    19   16   17 2  
    20   18   57 1  
    21   18   19 1  
    22   19   27 1  
    23   19   20 1  
    24   20   21 1  
    25   21   23 ar 
    26   21   22 ar 
    27   22   24 ar 
    28   24   26 ar 
    29   26   25 ar 
    30   25   23 ar 
    31   27   31 1  
    32   27   29 2  
    33   27   28 2  
    34    4   58 1  
    35   31   30 1  
    36   31   32 1  
    37   32   33 1  
    38   33   35 ar 
    39   33   34 ar 
    40   34   36 ar 
    41   36   38 ar 
    42   38   37 ar 
    43   37   35 ar 
    44   30   44 am 
    45   30   59 1  
    46   44   45 2  
    47   44   40 1  
    48   40   41 1  
    49   40   39 1  
    50   39   60 1  
    51   39   54 am 
    52   54   55 2  
    53   54   53 1  
    54   53   46 1  
    55   46   47 1  
    56   47   51 ar 
    57   47   48 ar 
    58   48   49 ar 
    59   49   52 ar 
    60   52   50 ar 
    61   50   51 ar 
    62   41   43 1  
    63   41   42 1  
    64    4   61 1  
    65    6   62 1  
    66    7   63 1  
    67    8   64 1  
    68    9   65 1  
    69   10   66 1  
    70   12   67 1  
    71   13   68 1  
    72   14   69 1  
    73   14   70 1  
    74   14   71 1  
    75   15   72 1  
    76   15   73 1  
    77   15   74 1  
    78   19   75 1  
    79   20   76 1  
    80   20   77 1  
    81   22   78 1  
    82   23   79 1  
    83   24   80 1  
    84   25   81 1  
    85   26   82 1  
    86   31   83 1  
    87   32   84 1  
    88   32   85 1  
    89   34   86 1  
    90   35   87 1  
    91   36   88 1  
    92   37   89 1  
    93   38   90 1  
    94   40   91 1  
    95   41   92 1  
    96   42   93 1  
    97   42   94 1  
    98   42   95 1  
    99   43   96 1  
   100   43   97 1  
   101   43   98 1  
   102   46   99 1  
   103   46  100 1  
   104   48  101 1  
   105   49  102 1  
   106   50  103 1  
   107   51  104 1  
   108   52  105 1  
@<TRIPOS>SUBSTRUCTURE
     1 SUB1        1 GROUP

