### 
### Created by X-TOOL on Sun Jun  3 12:35:13 2007
### 

@<TRIPOS>MOLECULE
2g8r_ligand
   45    47     1     0     0
SMALL
GAST_HUCK


@<TRIPOS>ATOM
      1 O2         38.5350    1.0970   18.1450 O.2       1 SUB1       -0.382
      2 C2         39.3940    1.8400   17.6080 C.2       1 SUB1        0.333
      3 N3         40.0240    1.4240   16.4820 N.am      1 SUB1       -0.186
      4 C4         40.9670    2.1990   15.8860 C.2       1 SUB1        0.182
      5 O4         41.5370    1.7960   14.8380 O.2       1 SUB1       -0.412
      6 C5         41.2770    3.4430   16.4440 C.2       1 SUB1        0.006
      7 C6         40.6120    3.8420   17.6060 C.2       1 SUB1        0.059
      8 N1         39.6840    3.0300   18.1680 N.am      1 SUB1       -0.159
      9 C1'        38.9760    3.4220   19.3960 C.3       1 SUB1        0.205
     10 O4'        39.1370    4.8120   19.7010 O.3       1 SUB1       -0.338
     11 C4'        39.5400    4.9970   21.0700 C.3       1 SUB1        0.103
     12 C5'        40.9230    5.6470   21.1450 C.3       1 SUB1        0.072
     13 O5'        41.2290    6.2690   19.8900 O.3       1 SUB1       -0.392
     14 C2'        39.4540    2.6240   20.6170 C.3       1 SUB1        0.128
     15 O2'        40.7460    2.0390   20.3840 O.3       1 SUB1       -0.385
     16 C3'        39.5610    3.6250   21.7540 C.3       1 SUB1        0.070
     17 N7         38.3730    3.3910   22.5880 N.3       1 SUB1       -0.294
     18 C13        38.6230    2.5690   23.7870 C.3       1 SUB1        0.001
     19 C8         37.0890    3.9160   22.0880 C.3       1 SUB1        0.001
     20 C9         35.9730    3.8530   23.1180 C.3       1 SUB1       -0.021
     21 C10        36.3450    3.2910   24.4910 C.3       1 SUB1        0.074
     22 C12        37.3020    2.1130   24.4060 C.3       1 SUB1       -0.021
     23 C11        35.0830    3.0280   25.2690 C.2       1 SUB1        0.349
     24 O13        34.7770    1.8940   25.7380 O.2       1 SUB1       -0.262
     25 O12        34.4030    4.0540   25.4220 O.2       1 SUB1       -0.262
     26 H          39.7870    0.5181   16.0775 H         1 SUB1        0.226
     27 H          42.0231    4.0890   15.9813 H         1 SUB1        0.026
     28 H          40.8395    4.8062   18.0605 H         1 SUB1        0.118
     29 H          37.9262    3.2084   19.1949 H         1 SUB1        0.100
     30 H          38.8354    5.6585   21.5741 H         1 SUB1        0.064
     31 H          41.6707    4.8847   21.3640 H         1 SUB1        0.058
     32 H          40.9279    6.3995   21.9336 H         1 SUB1        0.058
     33 H          41.2242    5.6058   19.1959 H         1 SUB1        0.209
     34 H          38.7615    1.8115   20.8368 H         1 SUB1        0.067
     35 H          41.0185    1.5475   21.1623 H         1 SUB1        0.210
     36 H          40.4503    3.5487   22.3796 H         1 SUB1        0.052
     37 H          39.1703    3.1645   24.5177 H         1 SUB1        0.043
     38 H          39.2025    1.6912   23.5009 H         1 SUB1        0.043
     39 H          36.7895    3.3014   21.2391 H         1 SUB1        0.043
     40 H          37.2397    4.9639   21.8286 H         1 SUB1        0.043
     41 H          35.2212    3.1783   22.7085 H         1 SUB1        0.030
     42 H          35.6594    4.8830   23.2876 H         1 SUB1        0.030
     43 H          36.9199    4.0317   25.0469 H         1 SUB1        0.052
     44 H          37.4866    1.7234   25.4071 H         1 SUB1        0.030
     45 H          36.8615    1.3327   23.7854 H         1 SUB1        0.030
@<TRIPOS>BOND
     1    1    2 2  
     2    2    3 am 
     3    2    8 am 
     4    3    4 am 
     5    4    5 2  
     6    4    6 1  
     7    6    7 2  
     8    7    8 1  
     9    8    9 1  
    10    9   10 1  
    11    9   14 1  
    12   10   11 1  
    13   11   12 1  
    14   11   16 1  
    15   12   13 1  
    16   14   15 1  
    17   14   16 1  
    18   16   17 1  
    19   17   18 1  
    20   17   19 1  
    21   18   22 1  
    22   19   20 1  
    23   20   21 1  
    24   21   22 1  
    25   21   23 1  
    26   23   24 2  
    27   23   25 2  
    28    3   26 1  
    29    6   27 1  
    30    7   28 1  
    31    9   29 1  
    32   11   30 1  
    33   12   31 1  
    34   12   32 1  
    35   13   33 1  
    36   14   34 1  
    37   15   35 1  
    38   16   36 1  
    39   18   37 1  
    40   18   38 1  
    41   19   39 1  
    42   19   40 1  
    43   20   41 1  
    44   20   42 1  
    45   21   43 1  
    46   22   44 1  
    47   22   45 1  
@<TRIPOS>SUBSTRUCTURE
     1 SUB1        1 GROUP

