2g8r_ligand
  -I-interpret- 

 45 47  0  0  0  0  0  0  0  0999 V2000
   38.5350    1.0970   18.1450 O   0  0  0  0  0
   39.3940    1.8400   17.6080 C   0  0  0  0  0
   40.0240    1.4240   16.4820 N   0  0  0  0  0
   40.9670    2.1990   15.8860 C   0  0  0  0  0
   41.5370    1.7960   14.8380 O   0  0  0  0  0
   41.2770    3.4430   16.4440 C   0  0  0  0  0
   40.6120    3.8420   17.6060 C   0  0  0  0  0
   39.6840    3.0300   18.1680 N   0  0  0  0  0
   38.9760    3.4220   19.3960 C   0  0  0  0  0
   39.1370    4.8120   19.7010 O   0  0  0  0  0
   39.5400    4.9970   21.0700 C   0  0  0  0  0
   40.9230    5.6470   21.1450 C   0  0  0  0  0
   41.2290    6.2690   19.8900 O   0  0  0  0  0
   39.4540    2.6240   20.6170 C   0  0  0  0  0
   40.7460    2.0390   20.3840 O   0  0  0  0  0
   39.5610    3.6250   21.7540 C   0  0  0  0  0
   38.3730    3.3910   22.5880 N   0  0  0  0  0
   38.6230    2.5690   23.7870 C   0  0  0  0  0
   37.0890    3.9160   22.0880 C   0  0  0  0  0
   35.9730    3.8530   23.1180 C   0  0  0  0  0
   36.3450    3.2910   24.4910 C   0  0  0  0  0
   37.3020    2.1130   24.4060 C   0  0  0  0  0
   35.0830    3.0280   25.2690 C   0  0  0  0  0
   34.7770    1.8940   25.7380 O   0  5  0  0  0
   34.4030    4.0540   25.4220 O   0  0  0  0  0
   39.7870    0.5181   16.0775 H   0  0  0  0  0
   42.0231    4.0890   15.9813 H   0  0  0  0  0
   40.8395    4.8062   18.0605 H   0  0  0  0  0
   37.9262    3.2084   19.1949 H   0  0  0  0  0
   38.8354    5.6585   21.5741 H   0  0  0  0  0
   41.6707    4.8847   21.3640 H   0  0  0  0  0
   40.9279    6.3995   21.9336 H   0  0  0  0  0
   41.2242    5.6058   19.1959 H   0  0  0  0  0
   38.7615    1.8115   20.8368 H   0  0  0  0  0
   41.0185    1.5475   21.1623 H   0  0  0  0  0
   40.4503    3.5487   22.3796 H   0  0  0  0  0
   39.1703    3.1645   24.5177 H   0  0  0  0  0
   39.2025    1.6912   23.5009 H   0  0  0  0  0
   36.7895    3.3014   21.2391 H   0  0  0  0  0
   37.2397    4.9639   21.8286 H   0  0  0  0  0
   35.2212    3.1783   22.7085 H   0  0  0  0  0
   35.6594    4.8830   23.2876 H   0  0  0  0  0
   36.9199    4.0317   25.0469 H   0  0  0  0  0
   37.4866    1.7234   25.4071 H   0  0  0  0  0
   36.8615    1.3327   23.7854 H   0  0  0  0  0
  1  2  2  0  0  0
  2  3  1  0  0  0
  2  8  1  0  0  0
  3  4  1  0  0  0
  4  5  2  0  0  0
  4  6  1  0  0  0
  6  7  2  0  0  0
  7  8  1  0  0  0
  8  9  1  0  0  0
  9 10  1  0  0  0
  9 14  1  0  0  0
 10 11  1  0  0  0
 11 12  1  0  0  0
 11 16  1  0  0  0
 12 13  1  0  0  0
 14 15  1  0  0  0
 14 16  1  0  0  0
 16 17  1  0  0  0
 17 18  1  0  0  0
 17 19  1  0  0  0
 18 22  1  0  0  0
 19 20  1  0  0  0
 20 21  1  0  0  0
 21 22  1  0  0  0
 21 23  1  0  0  0
 23 24  1  0  0  0
 23 25  2  0  0  0
  3 26  1  0  0  0
  6 27  1  0  0  0
  7 28  1  0  0  0
  9 29  1  0  0  0
 11 30  1  0  0  0
 12 31  1  0  0  0
 12 32  1  0  0  0
 13 33  1  0  0  0
 14 34  1  0  0  0
 15 35  1  0  0  0
 16 36  1  0  0  0
 18 37  1  0  0  0
 18 38  1  0  0  0
 19 39  1  0  0  0
 19 40  1  0  0  0
 20 41  1  0  0  0
 20 42  1  0  0  0
 21 43  1  0  0  0
 22 44  1  0  0  0
 22 45  1  0  0  0
M  END
$$$$
