1pu7_ligand
  -I-interpret- 

 22 23  0  0  0  0  0  0  0  0999 V2000
  121.4080    9.0630   46.2260 N   0  0  0  0  0
  120.1280    8.8610   46.6300 C   0  0  0  0  0
  119.1820    9.6610   46.0500 C   0  0  0  0  0
  119.2500   10.6740   45.0980 N   0  0  0  0  0
  117.8290    9.4640   46.4620 C   0  0  0  0  0
  117.0850   10.3170   45.8000 N   0  0  0  0  0
  117.9280   11.0250   44.9910 C   0  0  0  0  0
  115.6230   10.3360   46.0290 C   0  0  0  0  0
  117.4830    8.4900   47.4270 N   0  0  0  0  0
  116.0870    8.3100   47.8690 C   0  0  0  0  0
  118.4790    7.7520   47.9560 C   0  0  0  0  0
  119.7550    7.9360   47.5650 N   0  0  0  0  0
  122.1693    8.4942   46.6233 H   0  0  0  0  0
  121.6180    9.7850   45.5221 H   0  0  0  0  0
  117.5789   11.8049   44.3158 H   0  0  0  0  0
  115.3691    9.5785   46.7851 H   0  0  0  0  0
  115.3136   11.3258   46.3957 H   0  0  0  0  0
  115.0938   10.1002   45.0940 H   0  0  0  0  0
  116.0493    7.5049   48.6175 H   0  0  0  0  0
  115.7148    9.2397   48.3240 H   0  0  0  0  0
  115.4552    8.0325   47.0124 H   0  0  0  0  0
  118.2508    7.0019   48.7045 H   0  0  0  0  0
  1  2  1  0  0  0
  2  3  4  0  0  0
  2 12  4  0  0  0
  3  4  1  0  0  0
  3  5  4  0  0  0
  4  7  2  0  0  0
  5  6  1  0  0  0
  5  9  4  0  0  0
  6  7  1  0  0  0
  6  8  1  0  0  0
  9 10  1  0  0  0
  9 11  4  0  0  0
 11 12  4  0  0  0
  1 13  1  0  0  0
  1 14  1  0  0  0
  7 15  1  0  0  0
  8 16  1  0  0  0
  8 17  1  0  0  0
  8 18  1  0  0  0
 10 19  1  0  0  0
 10 20  1  0  0  0
 10 21  1  0  0  0
 11 22  1  0  0  0
M  END
$$$$
