### 
### Created by X-TOOL on Mon Oct 24 23:19:32 2005
### 

@<TRIPOS>MOLECULE
1pu7_ligand
   22    23     1     0     0
SMALL
GAST_HUCK


@<TRIPOS>ATOM
      1 N6        121.4080    9.0630   46.2260 N.pl3     1 SUB1       -0.269
      2 C6        120.1280    8.8610   46.6300 C.ar      1 SUB1        0.226
      3 C5        119.1820    9.6610   46.0500 C.ar      1 SUB1        0.215
      4 N7        119.2500   10.6740   45.0980 N.2       1 SUB1       -0.185
      5 C4        117.8290    9.4640   46.4620 C.ar      1 SUB1        0.229
      6 N9        117.0850   10.3170   45.8000 N.pl3     1 SUB1       -0.177
      7 C8        117.9280   11.0250   44.9910 C.2       1 SUB1        0.183
      8 C9M       115.6230   10.3360   46.0290 C.3       1 SUB1        0.062
      9 N3        117.4830    8.4900   47.4270 N.ar      1 SUB1       -0.286
     10 C3M       116.0870    8.3100   47.8690 C.3       1 SUB1        0.016
     11 C2        118.4790    7.7520   47.9560 C.ar      1 SUB1        0.103
     12 N1        119.7550    7.9360   47.5650 N.ar      1 SUB1       -0.196
     13 H11       122.1693    8.4942   46.6233 H         1 SUB1        0.226
     14 H12       121.6180    9.7850   45.5221 H         1 SUB1        0.226
     15 H71       117.5789   11.8049   44.3158 H         1 SUB1        0.183
     16 H81       115.3691    9.5785   46.7851 H         1 SUB1        0.060
     17 H82       115.3136   11.3258   46.3957 H         1 SUB1        0.060
     18 H83       115.0938   10.1002   45.0940 H         1 SUB1        0.060
     19 H101      116.0493    7.5049   48.6175 H         1 SUB1        0.043
     20 H102      115.7148    9.2397   48.3240 H         1 SUB1        0.043
     21 H103      115.4552    8.0325   47.0124 H         1 SUB1        0.043
     22 H111      118.2508    7.0019   48.7045 H         1 SUB1        0.134
@<TRIPOS>BOND
     1    1    2 1  
     2    2    3 ar 
     3    2   12 ar 
     4    3    4 1  
     5    3    5 ar 
     6    4    7 2  
     7    5    6 1  
     8    5    9 ar 
     9    6    7 1  
    10    6    8 1  
    11    9   10 1  
    12    9   11 ar 
    13   11   12 ar 
    14    1   13 1  
    15    1   14 1  
    16    7   15 1  
    17    8   16 1  
    18    8   17 1  
    19    8   18 1  
    20   10   19 1  
    21   10   20 1  
    22   10   21 1  
    23   11   22 1  
@<TRIPOS>SUBSTRUCTURE
     1 SUB1        1 GROUP

