### 
### Created by X-TOOL on Tue Oct 25 02:36:30 2005
### 

@<TRIPOS>MOLECULE
1h9z_ligand
   39    41     1     0     0
SMALL
GAST_HUCK


@<TRIPOS>ATOM
      1 C1         34.8210   14.6190    9.6270 C.ar      1 SUB1        0.052
      2 C2         30.8510   14.2270    9.5720 C.3       1 SUB1        0.039
      3 C3         30.5470   14.0430   11.0820 C.3       1 SUB1        0.039
      4 C4         29.0770   14.0520   11.4070 C.2       1 SUB1        0.105
      5 C5         28.5420   13.2490   12.5600 C.3       1 SUB1        0.010
      6 C6         30.5360   12.9520    8.7410 C.ar      1 SUB1       -0.031
      7 C7         30.0190   13.0550    7.4230 C.ar      1 SUB1       -0.059
      8 C8         29.7310   11.8960    6.6510 C.ar      1 SUB1       -0.068
      9 C9         29.9510   10.6210    7.1770 C.ar      1 SUB1       -0.069
     10 C10        30.4510   10.4960    8.4530 C.ar      1 SUB1       -0.068
     11 C11        32.4790   15.9140    8.5600 C.2       1 SUB1        0.257
     12 C12        30.7460   11.6410    9.2420 C.ar      1 SUB1       -0.059
     13 C13        32.3060   14.7100    9.3690 C.2       1 SUB1        0.074
     14 C14        33.4480   14.0920    9.8910 C.2       1 SUB1        0.110
     15 C15        36.0370   14.0390   10.1110 C.ar      1 SUB1       -0.056
     16 C16        37.2800   14.6180    9.7850 C.ar      1 SUB1       -0.070
     17 C17        37.3390   15.7790    8.9730 C.ar      1 SUB1       -0.068
     18 C18        36.1650   16.3700    8.4900 C.ar      1 SUB1       -0.024
     19 C19        34.9180   15.7850    8.8180 C.ar      1 SUB1        0.139
     20 O1         33.7730   16.4000    8.3140 O.3       1 SUB1       -0.215
     21 O2         31.5700   16.5570    8.0530 O.2       1 SUB1       -0.385
     22 O3         28.2330   14.8170   10.5850 O.2       1 SUB1       -0.392
     23 O4         33.4490   12.9750   10.6620 O.3       1 SUB1       -0.332
     24 H21        30.1990   15.0298    9.1974 H         1 SUB1        0.059
     25 H31        30.9589   13.0777   11.4113 H         1 SUB1        0.054
     26 H32        31.0207   14.8632   11.6413 H         1 SUB1        0.054
     27 H51        27.4534   13.3941   12.6230 H         1 SUB1        0.046
     28 H52        28.7524   12.1808   12.4028 H         1 SUB1        0.046
     29 H53        29.0034   13.5879   13.4992 H         1 SUB1        0.046
     30 H71        29.8404   14.0356    6.9970 H         1 SUB1        0.056
     31 H81        29.3377   12.0029    5.6465 H         1 SUB1        0.060
     32 H91        29.7302    9.7392    6.5864 H         1 SUB1        0.056
     33 H101       30.6228    9.5075    8.8634 H         1 SUB1        0.060
     34 H121       31.1383   11.5104   10.2441 H         1 SUB1        0.056
     35 H151       36.0016   13.1505   10.7310 H         1 SUB1        0.060
     36 H161       38.1959   14.1733   10.1571 H         1 SUB1        0.054
     37 H171       38.3008   16.2126    8.7241 H         1 SUB1        0.060
     38 H181       36.2102   17.2613    7.8747 H         1 SUB1        0.056
     39 H231       34.3432   12.7508   10.8915 H         1 SUB1        0.250
@<TRIPOS>BOND
     1    1   14 1  
     2    1   15 ar 
     3   19    1 ar 
     4    2    3 1  
     5    2    6 1  
     6   13    2 1  
     7    3    4 1  
     8    4    5 1  
     9    6    7 ar 
    10    6   12 ar 
    11    7    8 ar 
    12    8    9 ar 
    13   10    9 ar 
    14   12   10 ar 
    15   14   13 2  
    16   14   23 1  
    17   15   16 ar 
    18   17   16 ar 
    19   18   17 ar 
    20   19   18 ar 
    21   20   19 1  
    22    4   22 2  
    23   11   21 2  
    24   20   11 1  
    25   13   11 1  
    26    2   24 1  
    27    3   25 1  
    28    3   26 1  
    29    5   27 1  
    30    5   28 1  
    31    5   29 1  
    32    7   30 1  
    33    8   31 1  
    34    9   32 1  
    35   10   33 1  
    36   12   34 1  
    37   15   35 1  
    38   16   36 1  
    39   17   37 1  
    40   18   38 1  
    41   23   39 1  
@<TRIPOS>SUBSTRUCTURE
     1 SUB1        1 GROUP

