1h9z_ligand
  -I-interpret- 

 39 41  0  0  0  0  0  0  0  0999 V2000
   34.8210   14.6190    9.6270 C   0  0  0  0  0
   30.8510   14.2270    9.5720 C   0  0  0  0  0
   30.5470   14.0430   11.0820 C   0  0  0  0  0
   29.0770   14.0520   11.4070 C   0  0  0  0  0
   28.5420   13.2490   12.5600 C   0  0  0  0  0
   30.5360   12.9520    8.7410 C   0  0  0  0  0
   30.0190   13.0550    7.4230 C   0  0  0  0  0
   29.7310   11.8960    6.6510 C   0  0  0  0  0
   29.9510   10.6210    7.1770 C   0  0  0  0  0
   30.4510   10.4960    8.4530 C   0  0  0  0  0
   32.4790   15.9140    8.5600 C   0  0  0  0  0
   30.7460   11.6410    9.2420 C   0  0  0  0  0
   32.3060   14.7100    9.3690 C   0  0  0  0  0
   33.4480   14.0920    9.8910 C   0  0  0  0  0
   36.0370   14.0390   10.1110 C   0  0  0  0  0
   37.2800   14.6180    9.7850 C   0  0  0  0  0
   37.3390   15.7790    8.9730 C   0  0  0  0  0
   36.1650   16.3700    8.4900 C   0  0  0  0  0
   34.9180   15.7850    8.8180 C   0  0  0  0  0
   33.7730   16.4000    8.3140 O   0  0  0  0  0
   31.5700   16.5570    8.0530 O   0  0  0  0  0
   28.2330   14.8170   10.5850 O   0  0  0  0  0
   33.4490   12.9750   10.6620 O   0  0  0  0  0
   30.1990   15.0298    9.1974 H   0  0  0  0  0
   30.9589   13.0777   11.4113 H   0  0  0  0  0
   31.0207   14.8632   11.6413 H   0  0  0  0  0
   27.4534   13.3941   12.6230 H   0  0  0  0  0
   28.7524   12.1808   12.4028 H   0  0  0  0  0
   29.0034   13.5879   13.4992 H   0  0  0  0  0
   29.8404   14.0356    6.9970 H   0  0  0  0  0
   29.3377   12.0029    5.6465 H   0  0  0  0  0
   29.7302    9.7392    6.5864 H   0  0  0  0  0
   30.6228    9.5075    8.8634 H   0  0  0  0  0
   31.1383   11.5104   10.2441 H   0  0  0  0  0
   36.0016   13.1505   10.7310 H   0  0  0  0  0
   38.1959   14.1733   10.1571 H   0  0  0  0  0
   38.3008   16.2126    8.7241 H   0  0  0  0  0
   36.2102   17.2613    7.8747 H   0  0  0  0  0
   34.3432   12.7508   10.8915 H   0  0  0  0  0
  1 14  1  0  0  0
  1 15  4  0  0  0
 19  1  4  0  0  0
  2  3  1  0  0  0
  2  6  1  0  0  0
 13  2  1  0  0  0
  3  4  1  0  0  0
  4  5  1  0  0  0
  6  7  4  0  0  0
  6 12  4  0  0  0
  7  8  4  0  0  0
  8  9  4  0  0  0
 10  9  4  0  0  0
 12 10  4  0  0  0
 14 13  2  0  0  0
 14 23  1  0  0  0
 15 16  4  0  0  0
 17 16  4  0  0  0
 18 17  4  0  0  0
 19 18  4  0  0  0
 20 19  1  0  0  0
  4 22  2  0  0  0
 11 21  2  0  0  0
 20 11  1  0  0  0
 13 11  1  0  0  0
  2 24  1  0  0  0
  3 25  1  0  0  0
  3 26  1  0  0  0
  5 27  1  0  0  0
  5 28  1  0  0  0
  5 29  1  0  0  0
  7 30  1  0  0  0
  8 31  1  0  0  0
  9 32  1  0  0  0
 10 33  1  0  0  0
 12 34  1  0  0  0
 15 35  1  0  0  0
 16 36  1  0  0  0
 17 37  1  0  0  0
 18 38  1  0  0  0
 23 39  1  0  0  0
M  END
$$$$
