### 
### Created by X-TOOL on Sun Jun  3 11:16:01 2007
### 

@<TRIPOS>MOLECULE
1zog_ligand
   19    20     1     0     0
SMALL
GAST_HUCK


@<TRIPOS>ATOM
      1 C1         20.9600    9.1930   18.5010 C.ar      1 SUB1        0.020
      2 C2         21.9310    8.5560   17.7260 C.ar      1 SUB1        0.018
      3 C3         22.6080    7.4250   18.1930 C.ar      1 SUB1        0.024
      4 C4         20.6440    8.6960   19.7670 C.ar      1 SUB1        0.047
      5 N5         21.1980    6.9500   21.3680 N.pl3     1 SUB1       -0.232
      6 C6         21.3060    7.5620   20.2050 C.ar      1 SUB1        0.096
      7 C7         22.2660    6.9450   19.4510 C.ar      1 SUB1        0.038
      8 N8         22.7710    5.9460   20.1570 N.2       1 SUB1       -0.303
      9 C9         22.0990    5.9620   21.3120 C.2       1 SUB1        0.188
     10 S          22.2580    4.7780   22.6140 S.3       1 SUB1       -0.038
     11 C11        22.6190    3.1510   21.9020 C.3       1 SUB1        0.005
     12 BR10       19.3860    9.5760   20.8750 Br        1 SUB1       -0.052
     13 BR11       19.9870   10.6940   17.8530 Br        1 SUB1       -0.053
     14 BR12       22.3780    9.2520   16.0170 Br        1 SUB1       -0.054
     15 BR13       23.9260    6.5670   17.1280 Br        1 SUB1       -0.052
     16 H          20.5689    7.1784   22.1377 H         1 SUB1        0.235
     17 H          21.8057    2.8577   21.2382 H         1 SUB1        0.038
     18 H          23.5501    3.2013   21.3376 H         1 SUB1        0.038
     19 H          22.7175    2.4188   22.7035 H         1 SUB1        0.038
@<TRIPOS>BOND
     1    1    2 ar 
     2    1    4 ar 
     3    1   13 1  
     4    2    3 ar 
     5    2   14 1  
     6    3    7 ar 
     7    3   15 1  
     8    4    6 ar 
     9    4   12 1  
    10    6    5 1  
    11    5    9 1  
    12    6    7 ar 
    13    7    8 1  
    14    8    9 2  
    15    9   10 1  
    16   10   11 1  
    17    5   16 1  
    18   11   17 1  
    19   11   18 1  
    20   11   19 1  
@<TRIPOS>SUBSTRUCTURE
     1 SUB1        1 GROUP

