1rdn_ligand
  -I-interpret- 

 30 30  0  0  0  0  0  0  0  0999 V2000
    2.3560   46.6760   -0.1570 C   0  0  0  0  0
    2.6330   45.5650    0.8730 C   0  0  0  0  0
    3.2130   46.1620    2.1560 C   0  0  0  0  0
    4.4390   46.9740    1.8190 C   0  0  0  0  0
    4.1110   48.0510    0.7740 C   0  0  0  0  0
    5.3690   48.7940    0.3360 C   0  0  0  0  0
    1.2540   43.5570    1.0170 C   0  0  0  0  0
   -0.1100   43.0150    1.4250 C   0  0  0  0  0
    1.4030   44.8610    1.1940 N   0  0  0  0  0
    1.2970   47.4780    0.2890 O   0  0  0  0  0
    3.5730   45.1240    3.0580 O   0  0  0  0  0
    4.9360   47.5780    2.9980 O   0  0  0  0  0
    3.5370   47.4400   -0.4030 O   0  0  0  0  0
    5.1100   49.6890   -0.7340 O   0  0  0  0  0
    2.1390   42.8500    0.5360 O   0  0  0  0  0
    2.0537   46.2045   -1.1037 H   0  0  0  0  0
    3.3560   44.8544    0.4460 H   0  0  0  0  0
    2.4609   46.8110    2.6283 H   0  0  0  0  0
    5.2080   46.3041    1.4067 H   0  0  0  0  0
    3.3955   48.7648    1.2082 H   0  0  0  0  0
    6.1207   48.0596    0.0111 H   0  0  0  0  0
    5.7601   49.3655    1.1907 H   0  0  0  0  0
   -0.1427   41.9305    1.2440 H   0  0  0  0  0
   -0.8934   43.5094    0.8319 H   0  0  0  0  0
   -0.2788   43.2136    2.4937 H   0  0  0  0  0
    0.6355   45.3840    1.5648 H   0  0  0  0  0
    1.5466   47.9090    1.0980 H   0  0  0  0  0
    3.9318   45.5052    3.8508 H   0  0  0  0  0
    5.1631   46.9030    3.6268 H   0  0  0  0  0
    4.7769   49.2024   -1.4788 H   0  0  0  0  0
  1 13  1  0  0  0
  1 10  1  0  0  0
  1  2  1  0  0  0
  2  9  1  0  0  0
  2  3  1  0  0  0
  3 11  1  0  0  0
  3  4  1  0  0  0
  4 12  1  0  0  0
  4  5  1  0  0  0
  5 13  1  0  0  0
  5  6  1  0  0  0
  6 14  1  0  0  0
  9  7  1  0  0  0
  7 15  2  0  0  0
  7  8  1  0  0  0
  1 16  1  0  0  0
  2 17  1  0  0  0
  3 18  1  0  0  0
  4 19  1  0  0  0
  5 20  1  0  0  0
  6 21  1  0  0  0
  6 22  1  0  0  0
  8 23  1  0  0  0
  8 24  1  0  0  0
  8 25  1  0  0  0
  9 26  1  0  0  0
 10 27  1  0  0  0
 11 28  1  0  0  0
 12 29  1  0  0  0
 14 30  1  0  0  0
M  END
$$$$
