### 
### Created by X-TOOL on Tue Oct 25 02:32:00 2005
### 

@<TRIPOS>MOLECULE
1njc_ligand
   32    33     1     0     0
SMALL
GAST_HUCK


@<TRIPOS>ATOM
      1 N1         14.9020   46.4380  -51.7190 N.am      1 SUB1       -0.168
      2 C2         14.1850   45.3580  -51.2250 C.2       1 SUB1        0.251
      3 N3         13.7110   45.4090  -49.9240 N.2       1 SUB1       -0.277
      4 C4         13.9520   46.4790  -49.1260 C.2       1 SUB1        0.085
      5 C5         14.6640   47.6150  -49.6750 C.2       1 SUB1        0.008
      6 C6         15.1110   47.5240  -51.0020 C.2       1 SUB1        0.079
      7 O2         13.9430   44.3460  -51.8670 O.2       1 SUB1       -0.407
      8 N4         13.6750   46.4080  -47.8210 N.pl3     1 SUB1       -0.316
      9 C1'        15.7210   46.3370  -52.9350 C.3       1 SUB1        0.186
     10 C2'        15.0440   46.1050  -54.2880 C.3       1 SUB1        0.034
     11 C3'        16.2320   46.2250  -55.2340 C.3       1 SUB1        0.089
     12 C4'        16.9860   47.4800  -54.8130 C.3       1 SUB1        0.116
     13 O4'        16.6240   47.4730  -53.3390 O.3       1 SUB1       -0.337
     14 O3'        17.1240   45.1520  -54.9100 O.3       1 SUB1       -0.389
     15 C5'        16.4080   48.7120  -55.5100 C.3       1 SUB1        0.094
     16 O5'        16.8400   48.7060  -56.9070 O.3       1 SUB1       -0.320
     17 P          15.9630   49.4190  -58.0000 P.3       1 SUB1        0.205
     18 O1P        16.6410   49.6050  -59.3080 O.co2     1 SUB1       -0.535
     19 O2P        14.9040   48.4060  -58.0760 O.co2     1 SUB1       -0.535
     20 O3P        15.4330   50.7220  -57.5860 O.co2     1 SUB1       -0.535
     21 H51        14.8459   48.5080  -49.0789 H         1 SUB1        0.037
     22 H61        15.6399   48.3654  -51.4472 H         1 SUB1        0.133
     23 H81        13.8564   47.2180  -47.2112 H         1 SUB1        0.183
     24 H82        13.2801   45.5432  -47.4247 H         1 SUB1        0.183
     25 H91        16.3623   45.4659  -52.7352 H         1 SUB1        0.100
     26 H101       14.2836   46.8722  -54.4957 H         1 SUB1        0.035
     27 H102       14.5833   45.1077  -54.3431 H         1 SUB1        0.035
     28 H111       15.9331   46.2336  -56.2926 H         1 SUB1        0.062
     29 H121       18.0696   47.4099  -54.9886 H         1 SUB1        0.065
     30 H141       17.4015   45.2346  -54.0052 H         1 SUB1        0.210
     31 H151       16.7728   49.6234  -55.0137 H         1 SUB1        0.064
     32 H152       15.3094   48.6831  -55.4622 H         1 SUB1        0.064
@<TRIPOS>BOND
     1    1    9 1  
     2    1    6 am 
     3    1    2 am 
     4    2    7 2  
     5    2    3 1  
     6    3    4 2  
     7    4    8 1  
     8    4    5 1  
     9    5    6 2  
    10    9   13 1  
    11    9   10 1  
    12   10   11 1  
    13   11   14 1  
    14   11   12 1  
    15   12   15 1  
    16   12   13 1  
    17   15   16 1  
    18   16   17 1  
    19   17   20 2  
    20   17   19 2  
    21   17   18 2  
    22    5   21 1  
    23    6   22 1  
    24    8   23 1  
    25    8   24 1  
    26    9   25 1  
    27   10   26 1  
    28   10   27 1  
    29   11   28 1  
    30   12   29 1  
    31   14   30 1  
    32   15   31 1  
    33   15   32 1  
@<TRIPOS>SUBSTRUCTURE
     1 SUB1        1 GROUP

