1ssq_ligand
  -I-interpret- 

 14 13  0  0  0  0  0  0  0  0999 V2000
    8.5940   42.5210   51.4640 N   0  3  0  0  0
    8.8610   42.2840   50.0090 C   0  0  0  0  0
   10.3220   41.7880   49.8720 C   0  0  0  0  0
   11.0600   41.7650   50.8770 O   0  0  0  0  0
    8.6540   43.6030   49.2170 C   0  0  0  0  0
    9.6500   45.0180   49.8270 S   0  0  0  0  0
   10.7150   41.4650   48.7250 O   0  5  0  0  0
    7.6472   42.8456   51.5833 H   0  0  0  0  0
    9.2342   43.2164   51.8142 H   0  0  0  0  0
    8.7209   41.6605   51.9734 H   0  0  0  0  0
    8.1726   41.5176   49.6232 H   0  0  0  0  0
    7.5909   43.8785   49.2794 H   0  0  0  0  0
    8.9243   43.4196   48.1666 H   0  0  0  0  0
    9.4583   45.8306   49.2622 H   0  0  0  0  0
  1  2  1  0  0  0
  2  3  1  0  0  0
  2  5  1  0  0  0
  3  4  2  0  0  0
  3  7  1  0  0  0
  5  6  1  0  0  0
  1  8  1  0  0  0
  1  9  1  0  0  0
  1 10  1  0  0  0
  2 11  1  0  0  0
  5 12  1  0  0  0
  5 13  1  0  0  0
  6 14  1  0  0  0
M  END
$$$$
