### 
### Created by X-TOOL on Mon Oct 24 22:55:12 2005
### 

@<TRIPOS>MOLECULE
1ssq_ligand
   14    13     1     0     0
SMALL
GAST_HUCK


@<TRIPOS>ATOM
      1 N           8.5940   42.5210   51.4640 N.4       1 SUB1        0.239
      2 CA          8.8610   42.2840   50.0090 C.3       1 SUB1        0.024
      3 C          10.3220   41.7880   49.8720 C.2       1 SUB1        0.077
      4 O          11.0600   41.7650   50.8770 O.co2     1 SUB1       -0.561
      5 CB          8.6540   43.6030   49.2170 C.3       1 SUB1        0.045
      6 SG          9.6500   45.0180   49.8270 S.3       1 SUB1       -0.169
      7 OXT        10.7150   41.4650   48.7250 O.co2     1 SUB1       -0.561
      8 H11         7.6472   42.8456   51.5833 H         1 SUB1        0.202
      9 H12         9.2342   43.2164   51.8142 H         1 SUB1        0.202
     10 H13         8.7209   41.6605   51.9734 H         1 SUB1        0.202
     11 H21         8.1726   41.5176   49.6232 H         1 SUB1        0.108
     12 H51         7.5909   43.8785   49.2794 H         1 SUB1        0.047
     13 H52         8.9243   43.4196   48.1666 H         1 SUB1        0.047
     14 H61         9.4583   45.8306   49.2622 H         1 SUB1        0.102
@<TRIPOS>BOND
     1    1    2 1  
     2    2    3 1  
     3    2    5 1  
     4    3    4 2  
     5    3    7 2  
     6    5    6 1  
     7    1    8 1  
     8    1    9 1  
     9    1   10 1  
    10    2   11 1  
    11    5   12 1  
    12    5   13 1  
    13    6   14 1  
@<TRIPOS>SUBSTRUCTURE
     1 SUB1        1 GROUP

