### 
### Created by X-TOOL on Tue Oct 25 00:12:54 2005
### 

@<TRIPOS>MOLECULE
1xpz_ligand
   40    42     1     0     0
SMALL
GAST_HUCK


@<TRIPOS>ATOM
      1 S2         20.4470   26.3730   19.3330 S.o2      1 SUB1        0.177
      2 O1         20.6720   25.1870   20.0850 O.2       1 SUB1       -0.123
      3 O2         19.1220   26.8990   19.2100 O.2       1 SUB1       -0.123
      4 O3         21.2180   27.4860   20.1860 O.3       1 SUB1       -0.159
      5 N1         21.1600   26.2350   17.9630 N.am      1 SUB1       -0.238
      6 N2         23.0950   33.5550   18.7240 N.pl3     1 SUB1       -0.159
      7 N3         23.5810   34.3050   17.6020 N.pl3     1 SUB1       -0.110
      8 N4         24.6700   34.8120   15.7650 N.2       1 SUB1       -0.253
      9 N5         23.9200   35.9190   16.1570 N.2       1 SUB1       -0.253
     10 N6         26.2860   34.3310   24.9190 N.1       1 SUB1       -0.339
     11 C1         24.4560   33.8680   16.6310 C.2       1 SUB1        0.148
     12 C2         23.2830   35.6030   17.2420 C.2       1 SUB1        0.148
     13 C3         23.7700   33.7090   20.0500 C.ar      1 SUB1        0.086
     14 C4         23.1300   33.2980   21.3180 C.ar      1 SUB1       -0.029
     15 C5         23.7820   33.4490   22.5740 C.ar      1 SUB1       -0.038
     16 C6         25.1010   34.0130   22.6500 C.ar      1 SUB1        0.081
     17 C7         25.7600   34.4270   21.4350 C.ar      1 SUB1       -0.038
     18 C8         25.1150   34.2800   20.1690 C.ar      1 SUB1       -0.029
     19 C9         25.7630   34.1700   23.9110 C.1       1 SUB1        0.086
     20 C10        21.7100   32.9740   18.4710 C.3       1 SUB1        0.091
     21 C11        21.5670   31.5170   18.9130 C.ar      1 SUB1       -0.029
     22 C12        22.5800   30.5470   18.5490 C.ar      1 SUB1       -0.067
     23 C13        22.4600   29.2000   18.9720 C.ar      1 SUB1       -0.037
     24 C14        21.3370   28.7970   19.7590 C.ar      1 SUB1        0.118
     25 C15        20.3240   29.7480   20.1250 C.ar      1 SUB1       -0.037
     26 C16        20.4410   31.1090   19.7000 C.ar      1 SUB1       -0.067
     27 H51        20.8204   25.5819   17.2861 H         1 SUB1        0.166
     28 H52        21.9594   26.7991   17.7563 H         1 SUB1        0.166
     29 H111       24.9029   32.8756   16.5951 H         1 SUB1        0.133
     30 H121       22.6121   36.2646   17.7880 H         1 SUB1        0.133
     31 H141       22.1349   32.8690   21.2901 H         1 SUB1        0.055
     32 H151       23.2788   33.1356   23.4815 H         1 SUB1        0.068
     33 H171       26.7551   34.8541   21.4835 H         1 SUB1        0.068
     34 H181       25.6339   34.5992   19.2723 H         1 SUB1        0.055
     35 H201       21.5000   33.0324   17.3928 H         1 SUB1        0.069
     36 H202       20.9736   33.5781   19.0213 H         1 SUB1        0.069
     37 H221       23.4315   30.8525   17.9518 H         1 SUB1        0.053
     38 H231       23.2191   28.4759   18.6990 H         1 SUB1        0.053
     39 H251       19.4742   29.4353   20.7210 H         1 SUB1        0.053
     40 H261       19.6793   31.8304   19.9728 H         1 SUB1        0.053
@<TRIPOS>BOND
     1    1    2 2  
     2    1    3 2  
     3    4    1 1  
     4    1    5 1  
     5   24    4 1  
     6    6    7 1  
     7    6   13 1  
     8   20    6 1  
     9    7   11 1  
    10    7   12 1  
    11    9    8 1  
    12   11    8 2  
    13   12    9 2  
    14   19   10 3  
    15   13   14 ar 
    16   13   18 ar 
    17   14   15 ar 
    18   15   16 ar 
    19   17   16 ar 
    20   16   19 1  
    21   18   17 ar 
    22   21   20 1  
    23   22   21 ar 
    24   21   26 ar 
    25   23   22 ar 
    26   23   24 ar 
    27   24   25 ar 
    28   25   26 ar 
    29    5   27 1  
    30    5   28 1  
    31   11   29 1  
    32   12   30 1  
    33   14   31 1  
    34   15   32 1  
    35   17   33 1  
    36   18   34 1  
    37   20   35 1  
    38   20   36 1  
    39   22   37 1  
    40   23   38 1  
    41   25   39 1  
    42   26   40 1  
@<TRIPOS>SUBSTRUCTURE
     1 SUB1        1 GROUP

