1elc_ligand
  -I-interpret- 

 70 71  0  0  0  0  0  0  0  0999 V2000
   41.9430   21.5338   37.8793 H   0  0  0  0  0
   40.8789   18.9380   36.8631 H   0  0  0  0  0
   41.0439   18.6876   39.7210 H   0  0  0  0  0
   42.7117   18.9532   39.1089 H   0  0  0  0  0
   42.5008   17.1197   37.5267 H   0  0  0  0  0
   40.7483   16.9465   37.8806 H   0  0  0  0  0
   41.1718   16.0912   40.0607 H   0  0  0  0  0
   42.9003   16.5755   39.9962 H   0  0  0  0  0
   41.7048   14.5451   38.0604 H   0  0  0  0  0
   42.3533   14.0725   39.6675 H   0  0  0  0  0
   43.8305   15.4435   37.5454 H   0  0  0  0  0
   43.9672   13.8564   37.9596 H   0  0  0  0  0
   44.4268   15.0267   39.0219 H   0  0  0  0  0
   39.4910   20.5366   36.4443 H   0  0  0  0  0
   38.2052   22.1957   38.5411 H   0  0  0  0  0
   38.4201   23.3727   35.9446 H   0  0  0  0  0
   39.9576   22.5030   36.2703 H   0  0  0  0  0
   40.8229   22.8476   38.7844 H   0  0  0  0  0
   38.2701   25.4734   36.5826 H   0  0  0  0  0
   41.4970   24.7242   40.2570 H   0  0  0  0  0
   38.9276   27.3425   38.0610 H   0  0  0  0  0
   40.5357   26.9719   39.8702 H   0  0  0  0  0
   37.1091   23.3053   35.9463 H   0  0  0  0  0
   35.6518   20.2357   34.9493 H   0  0  0  0  0
   34.1418   20.1284   33.0086 H   0  0  0  0  0
   33.6705   24.4105   33.0981 H   0  0  0  0  0
   35.1993   24.5153   35.0455 H   0  0  0  0  0
   32.0561   21.4707   31.9126 H   0  0  0  0  0
   33.1324   21.3231   29.6618 H   0  0  0  0  0
   34.0622   20.4459   30.9238 H   0  0  0  0  0
   34.6258   22.0504   30.3455 H   0  0  0  0  0
   31.7548   23.8911   32.0718 H   0  0  0  0  0
   31.6835   23.3234   30.3691 H   0  0  0  0  0
   33.1596   24.1437   30.9813 H   0  0  0  0  0
   42.8050   20.7570   36.2120 C   0  0  0  0  0
   43.2220   19.6600   35.7850 O   0  0  0  0  0
   43.3350   22.1690   35.5980 C   0  0  0  0  0
   44.5760   22.5880   35.9040 F   0  0  0  0  0
   43.3400   22.1380   34.2310 F   0  0  0  0  0
   42.5450   23.2360   35.9070 F   0  0  0  0  0
   41.9850   20.7120   37.3110 N   0  0  0  0  0
   41.1470   19.5470   37.7390 C   0  0  0  0  0
   39.9350   20.2470   38.3590 C   0  0  0  0  0
   39.5500   20.1350   39.5140 O   0  0  0  0  0
   41.6950   18.6340   38.8360 C   0  0  0  0  0
   41.7310   17.1930   38.3090 C   0  0  0  0  0
   42.0520   16.1940   39.4090 C   0  0  0  0  0
   42.4190   14.8100   38.8540 C   0  0  0  0  0
   43.7640   14.7820   38.3030 N   0  3  0  0  0
   39.2820   20.8490   37.3710 N   0  0  0  0  0
   38.3090   21.8990   37.4870 C   0  0  0  0  0
   36.8880   21.5760   36.9920 C   0  0  0  0  0
   36.1860   20.7300   37.5860 O   0  0  0  0  0
   39.0710   22.9630   36.7310 C   0  0  0  0  0
   39.5100   24.0670   37.6060 C   0  0  0  0  0
   40.4130   23.8390   38.6290 C   0  0  0  0  0
   38.9750   25.3110   37.3900 C   0  0  0  0  0
   40.7890   24.8850   39.4520 C   0  0  0  0  0
   39.3470   26.3550   38.2160 C   0  0  0  0  0
   40.2460   26.1450   39.2320 C   0  0  0  0  0
   36.5460   22.4810   36.0050 N   0  0  0  0  0
   35.5440   22.3810   35.1150 C   0  0  0  0  0
   35.2290   21.1470   34.5420 C   0  0  0  0  0
   34.3760   21.0890   33.4530 C   0  0  0  0  0
   33.8090   22.2580   32.9150 C   0  0  0  0  0
   34.1070   23.5020   33.4970 C   0  0  0  0  0
   34.9690   23.5580   34.5920 C   0  0  0  0  0
   32.9050   22.1250   31.6650 C   0  0  0  0  0
   33.7410   21.4370   30.5710 C   0  0  0  0  0
   32.3370   23.4620   31.2430 C   0  0  0  0  0
 41  1  1  0  0  0
 42  2  1  0  0  0
 45  3  1  0  0  0
 45  4  1  0  0  0
 46  5  1  0  0  0
 46  6  1  0  0  0
 47  7  1  0  0  0
 47  8  1  0  0  0
 48  9  1  0  0  0
 48 10  1  0  0  0
 49 11  1  0  0  0
 49 12  1  0  0  0
 49 13  1  0  0  0
 50 14  1  0  0  0
 51 15  1  0  0  0
 54 16  1  0  0  0
 54 17  1  0  0  0
 56 18  1  0  0  0
 57 19  1  0  0  0
 58 20  1  0  0  0
 59 21  1  0  0  0
 60 22  1  0  0  0
 61 23  1  0  0  0
 63 24  1  0  0  0
 64 25  1  0  0  0
 66 26  1  0  0  0
 67 27  1  0  0  0
 68 28  1  0  0  0
 69 29  1  0  0  0
 69 30  1  0  0  0
 69 31  1  0  0  0
 70 32  1  0  0  0
 70 33  1  0  0  0
 70 34  1  0  0  0
 42 41  1  0  0  0
 42 45  1  0  0  0
 43 42  1  0  0  0
 43 44  2  0  0  0
 45 46  1  0  0  0
 46 47  1  0  0  0
 47 48  1  0  0  0
 48 49  1  0  0  0
 51 50  1  0  0  0
 51 54  1  0  0  0
 52 51  1  0  0  0
 52 53  2  0  0  0
 54 55  1  0  0  0
 55 56  4  0  0  0
 55 57  4  0  0  0
 57 59  4  0  0  0
 59 60  4  0  0  0
 58 60  4  0  0  0
 56 58  4  0  0  0
 50 43  1  0  0  0
 35 36  2  0  0  0
 35 37  1  0  0  0
 41 35  1  0  0  0
 37 38  1  0  0  0
 37 39  1  0  0  0
 37 40  1  0  0  0
 61 52  1  0  0  0
 62 61  1  0  0  0
 63 62  4  0  0  0
 67 62  4  0  0  0
 64 63  4  0  0  0
 65 64  4  0  0  0
 65 66  4  0  0  0
 68 65  1  0  0  0
 66 67  4  0  0  0
 68 69  1  0  0  0
 68 70  1  0  0  0
M  END
$$$$
