1fwv_ligand
  -I-interpret- 

 74 76  0  0  0  0  0  0  0  0999 V2000
   -0.8320    6.5040   10.2130 C   0  0  0  0  0
   -0.7520    8.0050    9.9990 C   0  0  0  0  0
    0.2330    8.6370   10.9840 C   0  0  0  0  0
   -0.2420    8.3060   12.4150 C   0  0  0  0  0
   -0.3140    6.7670   12.5720 C   0  0  0  0  0
   -0.8260    6.2880   13.9470 C   0  0  0  0  0
   -1.8060    5.9140    9.3310 O   0  0  0  0  0
   -0.3400    8.2850    8.6440 O   0  0  0  0  0
    0.3010   10.0500   10.8040 O   0  0  0  0  0
   -1.5400    8.8430   12.6340 O   0  0  0  0  0
   -1.2240    6.1750   11.5830 O   0  0  0  0  0
    0.0120    6.8160   14.9990 O   0  0  0  0  0
    1.5960   10.7420   11.1330 S   0  0  0  0  0
    2.7460   10.0460   10.4870 O   0  5  0  0  0
    1.5640   12.1270   10.6300 O   0  0  0  0  0
    1.8010   10.7780   12.5840 O   0  0  0  0  0
   -1.3970    2.4970    7.7660 C   0  0  0  0  0
   -1.3760    4.0320    7.8480 C   0  0  0  0  0
   -1.8300    4.5070    9.2300 C   0  0  0  0  0
   -3.2860    3.9820    9.4410 C   0  0  0  0  0
   -3.2600    2.4230    9.3270 C   0  0  0  0  0
   -4.6350    1.8040    9.4690 C   0  0  0  0  0
    0.2110    5.3750    6.5710 C   0  0  0  0  0
    1.6370    5.7390    6.3820 C   0  0  0  0  0
   -0.0320    4.4960    7.5530 N   0  0  0  0  0
   -1.0150    2.0500    6.5440 O   0  0  0  0  0
   -2.7440    2.0110    8.0580 O   0  0  0  0  0
   -4.5760    0.3730    9.3510 O   0  0  0  0  0
   -0.6800    5.8810    5.8260 O   0  0  0  0  0
   -5.1140    4.9920   10.7810 C   0  0  0  0  0
   -5.5030    5.1670   12.2620 C   0  0  0  0  0
   -4.6690    6.2790   12.9120 C   0  0  0  0  0
   -4.8630    7.5910   12.1270 C   0  0  0  0  0
   -4.4720    7.4110   10.6880 C   0  0  0  0  0
   -4.6550    8.6200    9.8100 C   0  0  0  0  0
   -3.7930    4.4090   10.7560 O   0  0  0  0  0
   -5.3860    3.9090   12.9320 O   0  0  0  0  0
   -5.1330    6.4550   14.2480 O   0  0  0  0  0
   -6.2500    8.0070   12.2250 O   0  0  0  0  0
   -5.1940    6.2720   10.0690 O   0  0  0  0  0
    0.1569    6.0689   10.0064 H   0  0  0  0  0
   -1.7482    8.4404   10.1662 H   0  0  0  0  0
    1.2334    8.2092   10.8220 H   0  0  0  0  0
    0.4632    8.7268   13.1469 H   0  0  0  0  0
    0.7000    6.3698   12.4168 H   0  0  0  0  0
   -0.8037    5.1888   13.9810 H   0  0  0  0  0
   -1.8583    6.6386   14.0934 H   0  0  0  0  0
   -0.2919    9.2252    8.5167 H   0  0  0  0  0
   -2.1471    8.4662   12.0079 H   0  0  0  0  0
   -0.3111    6.5158   15.8404 H   0  0  0  0  0
   -0.7007    2.0977    8.5181 H   0  0  0  0  0
   -2.0666    4.4394    7.0950 H   0  0  0  0  0
   -1.1666    4.0838    9.9986 H   0  0  0  0  0
   -3.9404    4.3921    8.6577 H   0  0  0  0  0
   -2.6109    2.0333   10.1250 H   0  0  0  0  0
   -5.2908    2.2021    8.6807 H   0  0  0  0  0
   -5.0462    2.0659   10.4550 H   0  0  0  0  0
    1.7248    6.4611    5.5569 H   0  0  0  0  0
    2.2173    4.8359    6.1421 H   0  0  0  0  0
    2.0260    6.1899    7.3068 H   0  0  0  0  0
    0.7326    4.1504    8.0971 H   0  0  0  0  0
   -1.0190    1.1000    6.5401 H   0  0  0  0  0
   -4.2252    0.1408    8.4992 H   0  0  0  0  0
   -5.8164    4.2934   10.3030 H   0  0  0  0  0
   -6.5580    5.4750   12.3079 H   0  0  0  0  0
   -3.6049    6.0003   12.9151 H   0  0  0  0  0
   -4.2245    8.3691   12.5706 H   0  0  0  0  0
   -3.3985    7.1710   10.6853 H   0  0  0  0  0
   -4.3402    8.3790    8.7839 H   0  0  0  0  0
   -4.0439    9.4492   10.1958 H   0  0  0  0  0
   -5.7146    8.9152    9.8086 H   0  0  0  0  0
   -4.4891    3.6017   12.8720 H   0  0  0  0  0
   -6.0511    6.6989   14.2337 H   0  0  0  0  0
   -6.4742    8.1454   13.1377 H   0  0  0  0  0
  1 11  1  0  0  0
  7  1  1  0  0  0
  1  2  1  0  0  0
  2  8  1  0  0  0
  2  3  1  0  0  0
  3  9  1  0  0  0
  3  4  1  0  0  0
  4 10  1  0  0  0
  5  4  1  0  0  0
 11  5  1  0  0  0
  5  6  1  0  0  0
  6 12  1  0  0  0
  9 13  1  0  0  0
 13 16  2  0  0  0
 13 15  2  0  0  0
 13 14  1  0  0  0
 27 17  1  0  0  0
 17 26  1  0  0  0
 18 17  1  0  0  0
 18 25  1  0  0  0
 19 18  1  0  0  0
 20 19  1  0  0  0
 20 21  1  0  0  0
 21 27  1  0  0  0
 21 22  1  0  0  0
 22 28  1  0  0  0
 25 23  1  0  0  0
 23 29  2  0  0  0
 23 24  1  0  0  0
 30 40  1  0  0  0
 36 30  1  0  0  0
 30 31  1  0  0  0
 31 37  1  0  0  0
 31 32  1  0  0  0
 32 38  1  0  0  0
 32 33  1  0  0  0
 33 39  1  0  0  0
 34 33  1  0  0  0
 40 34  1  0  0  0
 34 35  1  0  0  0
 19  7  1  0  0  0
 36 20  1  0  0  0
  1 41  1  0  0  0
  2 42  1  0  0  0
  3 43  1  0  0  0
  4 44  1  0  0  0
  5 45  1  0  0  0
  6 46  1  0  0  0
  6 47  1  0  0  0
  8 48  1  0  0  0
 10 49  1  0  0  0
 12 50  1  0  0  0
 17 51  1  0  0  0
 18 52  1  0  0  0
 19 53  1  0  0  0
 20 54  1  0  0  0
 21 55  1  0  0  0
 22 56  1  0  0  0
 22 57  1  0  0  0
 24 58  1  0  0  0
 24 59  1  0  0  0
 24 60  1  0  0  0
 25 61  1  0  0  0
 26 62  1  0  0  0
 28 63  1  0  0  0
 30 64  1  0  0  0
 31 65  1  0  0  0
 32 66  1  0  0  0
 33 67  1  0  0  0
 34 68  1  0  0  0
 35 69  1  0  0  0
 35 70  1  0  0  0
 35 71  1  0  0  0
 37 72  1  0  0  0
 38 73  1  0  0  0
 39 74  1  0  0  0
M  END
$$$$
