### 
### Created by X-TOOL on Tue Oct 25 01:26:57 2005
### 

@<TRIPOS>MOLECULE
1fwv_ligand
   74    76     1     0     0
SMALL
GAST_HUCK


@<TRIPOS>ATOM
      1 C1         -0.8320    6.5040   10.2130 C.3       1 SUB1        0.189
      2 C2         -0.7520    8.0050    9.9990 C.3       1 SUB1        0.137
      3 C3          0.2330    8.6370   10.9840 C.3       1 SUB1        0.143
      4 C4         -0.2420    8.3060   12.4150 C.3       1 SUB1        0.114
      5 C5         -0.3140    6.7670   12.5720 C.3       1 SUB1        0.113
      6 C6         -0.8260    6.2880   13.9470 C.3       1 SUB1        0.073
      7 O1         -1.8060    5.9140    9.3310 O.3       1 SUB1       -0.340
      8 O2         -0.3400    8.2850    8.6440 O.3       1 SUB1       -0.384
      9 O3          0.3010   10.0500   10.8040 O.3       1 SUB1       -0.257
     10 O4         -1.5400    8.8430   12.6340 O.3       1 SUB1       -0.386
     11 O5         -1.2240    6.1750   11.5830 O.3       1 SUB1       -0.340
     12 O6          0.0120    6.8160   14.9990 O.3       1 SUB1       -0.392
     13 S           1.5960   10.7420   11.1330 S.o2      1 SUB1       -0.073
     14 O1S         2.7460   10.0460   10.4870 O.co2     1 SUB1       -0.461
     15 O2S         1.5640   12.1270   10.6300 O.co2     1 SUB1       -0.461
     16 O3S         1.8010   10.7780   12.5840 O.co2     1 SUB1       -0.461
     17 C1         -1.3970    2.4970    7.7660 C.3       1 SUB1        0.182
     18 C2         -1.3760    4.0320    7.8480 C.3       1 SUB1        0.121
     19 C3         -1.8300    4.5070    9.2300 C.3       1 SUB1        0.118
     20 C4         -3.2860    3.9820    9.4410 C.3       1 SUB1        0.119
     21 C5         -3.2600    2.4230    9.3270 C.3       1 SUB1        0.113
     22 C6         -4.6350    1.8040    9.4690 C.3       1 SUB1        0.073
     23 C7          0.2110    5.3750    6.5710 C.2       1 SUB1        0.173
     24 C8          1.6370    5.7390    6.3820 C.3       1 SUB1        0.026
     25 N2         -0.0320    4.4960    7.5530 N.am      1 SUB1       -0.277
     26 O1         -1.0150    2.0500    6.5440 O.3       1 SUB1       -0.365
     27 O5         -2.7440    2.0110    8.0580 O.3       1 SUB1       -0.341
     28 O6         -4.5760    0.3730    9.3510 O.3       1 SUB1       -0.392
     29 O7         -0.6800    5.8810    5.8260 O.2       1 SUB1       -0.397
     30 C1         -5.1140    4.9920   10.7810 C.3       1 SUB1        0.188
     31 C2         -5.5030    5.1670   12.2620 C.3       1 SUB1        0.134
     32 C3         -4.6690    6.2790   12.9120 C.3       1 SUB1        0.114
     33 C4         -4.8630    7.5910   12.1270 C.3       1 SUB1        0.109
     34 C5         -4.4720    7.4110   10.6880 C.3       1 SUB1        0.087
     35 C6         -4.6550    8.6200    9.8100 C.3       1 SUB1       -0.036
     36 O1         -3.7930    4.4090   10.7560 O.3       1 SUB1       -0.340
     37 O2         -5.3860    3.9090   12.9320 O.3       1 SUB1       -0.384
     38 O3         -5.1330    6.4550   14.2480 O.3       1 SUB1       -0.386
     39 O4         -6.2500    8.0070   12.2250 O.3       1 SUB1       -0.387
     40 O5         -5.1940    6.2720   10.0690 O.3       1 SUB1       -0.343
     41 H11         0.1569    6.0689   10.0064 H         1 SUB1        0.094
     42 H21        -1.7482    8.4404   10.1662 H         1 SUB1        0.067
     43 H31         1.2334    8.2092   10.8220 H         1 SUB1        0.067
     44 H41         0.4632    8.7268   13.1469 H         1 SUB1        0.065
     45 H51         0.7000    6.3698   12.4168 H         1 SUB1        0.065
     46 H61        -0.8037    5.1888   13.9810 H         1 SUB1        0.058
     47 H62        -1.8583    6.6386   14.0934 H         1 SUB1        0.058
     48 H81        -0.2919    9.2252    8.5167 H         1 SUB1        0.210
     49 H101       -2.1471    8.4662   12.0079 H         1 SUB1        0.210
     50 H121       -0.3111    6.5158   15.8404 H         1 SUB1        0.209
     51 H171       -0.7007    2.0977    8.5181 H         1 SUB1        0.093
     52 H181       -2.0666    4.4394    7.0950 H         1 SUB1        0.063
     53 H191       -1.1666    4.0838    9.9986 H         1 SUB1        0.065
     54 H201       -3.9404    4.3921    8.6577 H         1 SUB1        0.065
     55 H211       -2.6109    2.0333   10.1250 H         1 SUB1        0.065
     56 H221       -5.2908    2.2021    8.6807 H         1 SUB1        0.058
     57 H222       -5.0462    2.0659   10.4550 H         1 SUB1        0.058
     58 H241        1.7248    6.4611    5.5569 H         1 SUB1        0.047
     59 H242        2.2173    4.8359    6.1421 H         1 SUB1        0.047
     60 H243        2.0260    6.1899    7.3068 H         1 SUB1        0.047
     61 H251        0.7326    4.1504    8.0971 H         1 SUB1        0.186
     62 H261       -1.0190    1.1000    6.5401 H         1 SUB1        0.213
     63 H281       -4.2252    0.1408    8.4992 H         1 SUB1        0.209
     64 H301       -5.8164    4.2934   10.3030 H         1 SUB1        0.094
     65 H311       -6.5580    5.4750   12.3079 H         1 SUB1        0.067
     66 H321       -3.6049    6.0003   12.9151 H         1 SUB1        0.065
     67 H331       -4.2245    8.3691   12.5706 H         1 SUB1        0.065
     68 H341       -3.3985    7.1710   10.6853 H         1 SUB1        0.062
     69 H351       -4.3402    8.3790    8.7839 H         1 SUB1        0.025
     70 H352       -4.0439    9.4492   10.1958 H         1 SUB1        0.025
     71 H353       -5.7146    8.9152    9.8086 H         1 SUB1        0.025
     72 H371       -4.4891    3.6017   12.8720 H         1 SUB1        0.210
     73 H381       -6.0511    6.6989   14.2337 H         1 SUB1        0.210
     74 H391       -6.4742    8.1454   13.1377 H         1 SUB1        0.210
@<TRIPOS>BOND
     1    1   11 1  
     2    7    1 1  
     3    1    2 1  
     4    2    8 1  
     5    2    3 1  
     6    3    9 1  
     7    3    4 1  
     8    4   10 1  
     9    5    4 1  
    10   11    5 1  
    11    5    6 1  
    12    6   12 1  
    13    9   13 1  
    14   13   16 2  
    15   13   15 2  
    16   13   14 2  
    17   27   17 1  
    18   17   26 1  
    19   18   17 1  
    20   18   25 1  
    21   19   18 1  
    22   20   19 1  
    23   20   21 1  
    24   21   27 1  
    25   21   22 1  
    26   22   28 1  
    27   25   23 am 
    28   23   29 2  
    29   23   24 1  
    30   30   40 1  
    31   36   30 1  
    32   30   31 1  
    33   31   37 1  
    34   31   32 1  
    35   32   38 1  
    36   32   33 1  
    37   33   39 1  
    38   34   33 1  
    39   40   34 1  
    40   34   35 1  
    41   19    7 1  
    42   36   20 1  
    43    1   41 1  
    44    2   42 1  
    45    3   43 1  
    46    4   44 1  
    47    5   45 1  
    48    6   46 1  
    49    6   47 1  
    50    8   48 1  
    51   10   49 1  
    52   12   50 1  
    53   17   51 1  
    54   18   52 1  
    55   19   53 1  
    56   20   54 1  
    57   21   55 1  
    58   22   56 1  
    59   22   57 1  
    60   24   58 1  
    61   24   59 1  
    62   24   60 1  
    63   25   61 1  
    64   26   62 1  
    65   28   63 1  
    66   30   64 1  
    67   31   65 1  
    68   32   66 1  
    69   33   67 1  
    70   34   68 1  
    71   35   69 1  
    72   35   70 1  
    73   35   71 1  
    74   37   72 1  
    75   38   73 1  
    76   39   74 1  
@<TRIPOS>SUBSTRUCTURE
     1 SUB1        1 GROUP

