### 
### Created by X-TOOL on Tue Oct 25 01:10:32 2005
### 

@<TRIPOS>MOLECULE
1pu8_ligand
   18    20     1     0     0
SMALL
GAST_HUCK


@<TRIPOS>ATOM
      1 N7        116.4870    8.4370   47.6550 N.pl3     1 SUB1       -0.221
      2 C8        115.4050    9.1350   47.1680 C.2       1 SUB1        0.123
      3 C5        117.5520    8.9510   47.0190 C.ar      1 SUB1        0.207
      4 C4        117.0420    9.9930   46.1250 C.ar      1 SUB1        0.146
      5 N3        117.9000   10.7780   45.2700 N.ar      1 SUB1       -0.248
      6 N9        115.7280   10.0880   46.2320 N.2       1 SUB1       -0.270
      7 C6        118.9270    8.7880   46.9610 C.ar      1 SUB1        0.251
      8 N6        119.6880    7.9170   47.6610 N.pl3     1 SUB1       -0.186
      9 C11       121.0970    8.0960   47.2860 C.2       1 SUB1        0.153
     10 N1        119.7190    9.5860   46.1160 N.ar      1 SUB1       -0.235
     11 C10       121.0220    9.2130   46.2540 C.2       1 SUB1        0.103
     12 C2        119.2230   10.5400   45.2990 C.ar      1 SUB1        0.089
     13 H21       114.3880    8.9493   47.4940 H         1 SUB1        0.144
     14 H81       119.3356    7.2357   48.3485 H         1 SUB1        0.289
     15 H91       121.9735    7.5643   47.6532 H         1 SUB1        0.159
     16 H111      121.8670    9.6413   45.7170 H         1 SUB1        0.135
     17 H121      119.8912   11.1136   44.6669 H         1 SUB1        0.112
     18 H11       116.4809    7.6827   48.3564 H         1 SUB1        0.250
@<TRIPOS>BOND
     1    1    2 1  
     2    1    3 1  
     3    2    6 2  
     4    3    4 ar 
     5    3    7 ar 
     6    4    5 ar 
     7    4    6 1  
     8    5   12 ar 
     9    7    8 1  
    10    7   10 ar 
    11    8    9 1  
    12    9   11 2  
    13   10   11 1  
    14   10   12 ar 
    15    2   13 1  
    16    8   14 1  
    17    9   15 1  
    18   11   16 1  
    19   12   17 1  
    20    1   18 1  
@<TRIPOS>SUBSTRUCTURE
     1 SUB1        1 GROUP

