1pu8_ligand
  -I-interpret- 

 18 20  0  0  0  0  0  0  0  0999 V2000
  116.4870    8.4370   47.6550 N   0  0  0  0  0
  115.4050    9.1350   47.1680 C   0  0  0  0  0
  117.5520    8.9510   47.0190 C   0  0  0  0  0
  117.0420    9.9930   46.1250 C   0  0  0  0  0
  117.9000   10.7780   45.2700 N   0  0  0  0  0
  115.7280   10.0880   46.2320 N   0  0  0  0  0
  118.9270    8.7880   46.9610 C   0  0  0  0  0
  119.6880    7.9170   47.6610 N   0  0  0  0  0
  121.0970    8.0960   47.2860 C   0  0  0  0  0
  119.7190    9.5860   46.1160 N   0  0  0  0  0
  121.0220    9.2130   46.2540 C   0  0  0  0  0
  119.2230   10.5400   45.2990 C   0  0  0  0  0
  114.3880    8.9493   47.4940 H   0  0  0  0  0
  119.3356    7.2357   48.3485 H   0  0  0  0  0
  121.9735    7.5643   47.6532 H   0  0  0  0  0
  121.8670    9.6413   45.7170 H   0  0  0  0  0
  119.8912   11.1136   44.6669 H   0  0  0  0  0
  116.4809    7.6827   48.3564 H   0  0  0  0  0
  1  2  1  0  0  0
  1  3  1  0  0  0
  2  6  2  0  0  0
  3  4  4  0  0  0
  3  7  4  0  0  0
  4  5  4  0  0  0
  4  6  1  0  0  0
  5 12  4  0  0  0
  7  8  1  0  0  0
  7 10  4  0  0  0
  8  9  1  0  0  0
  9 11  2  0  0  0
 10 11  1  0  0  0
 10 12  4  0  0  0
  2 13  1  0  0  0
  8 14  1  0  0  0
  9 15  1  0  0  0
 11 16  1  0  0  0
 12 17  1  0  0  0
  1 18  1  0  0  0
M  END
$$$$
