### 
### Created by X-TOOL on Mon Oct 24 23:43:41 2005
### 

@<TRIPOS>MOLECULE
3pcc_ligand
   15    15     1     0     0
SMALL
GAST_HUCK


@<TRIPOS>ATOM
      1 H91        16.4907   11.7242   39.5247 H         1 SUB1        0.059
      2 H101       15.6202    9.3675   39.6357 H         1 SUB1        0.057
      3 H121       12.6285   10.6332   42.4485 H         1 SUB1        0.057
      4 H131       13.4615   12.9619   42.3229 H         1 SUB1        0.059
      5 C1'        15.6490   13.8990   40.9310 C.2       1 SUB1        0.055
      6 O1'        16.5810   14.2470   40.2370 O.co2     1 SUB1       -0.557
      7 O2'        15.1560   14.7840   41.6340 O.co2     1 SUB1       -0.557
      8 C1         15.0670   12.4800   40.9640 C.ar      1 SUB1       -0.018
      9 C2         15.6540   11.4820   40.1700 C.ar      1 SUB1       -0.060
     10 C3         15.1510   10.1560   40.2130 C.ar      1 SUB1       -0.028
     11 C4         14.0380    9.8870   41.0150 C.ar      1 SUB1        0.095
     12 C5         13.4610   10.8760   41.7980 C.ar      1 SUB1       -0.028
     13 C6         13.9480   12.1800   41.7510 C.ar      1 SUB1       -0.060
     14 O4         13.5830    8.6400   41.0400 O.3       1 SUB1       -0.328
     15 H141       12.8304    8.5902   41.6175 H         1 SUB1        0.253
@<TRIPOS>BOND
     1    9    1 1  
     2   10    2 1  
     3   12    3 1  
     4    8    5 1  
     5    5    7 2  
     6    5    6 2  
     7    8   13 ar 
     8    9    8 ar 
     9   10    9 ar 
    10   11   10 ar 
    11   11   14 1  
    12   11   12 ar 
    13   12   13 ar 
    14   13    4 1  
    15   14   15 1  
@<TRIPOS>SUBSTRUCTURE
     1 SUB1        1 GROUP

