3pcc_ligand
  -I-interpret- 

 15 15  0  0  0  0  0  0  0  0999 V2000
   16.4907   11.7242   39.5247 H   0  0  0  0  0
   15.6202    9.3675   39.6357 H   0  0  0  0  0
   12.6285   10.6332   42.4485 H   0  0  0  0  0
   13.4615   12.9619   42.3229 H   0  0  0  0  0
   15.6490   13.8990   40.9310 C   0  0  0  0  0
   16.5810   14.2470   40.2370 O   0  0  0  0  0
   15.1560   14.7840   41.6340 O   0  5  0  0  0
   15.0670   12.4800   40.9640 C   0  0  0  0  0
   15.6540   11.4820   40.1700 C   0  0  0  0  0
   15.1510   10.1560   40.2130 C   0  0  0  0  0
   14.0380    9.8870   41.0150 C   0  0  0  0  0
   13.4610   10.8760   41.7980 C   0  0  0  0  0
   13.9480   12.1800   41.7510 C   0  0  0  0  0
   13.5830    8.6400   41.0400 O   0  0  0  0  0
   12.8304    8.5902   41.6175 H   0  0  0  0  0
  9  1  1  0  0  0
 10  2  1  0  0  0
 12  3  1  0  0  0
  8  5  1  0  0  0
  5  7  1  0  0  0
  5  6  2  0  0  0
  8 13  4  0  0  0
  9  8  4  0  0  0
 10  9  4  0  0  0
 11 10  4  0  0  0
 11 14  1  0  0  0
 11 12  4  0  0  0
 12 13  4  0  0  0
 13  4  1  0  0  0
 14 15  1  0  0  0
M  END
$$$$
