### 
### Created by X-TOOL on Tue Oct 25 02:32:51 2005
### 

@<TRIPOS>MOLECULE
1ai7_ligand
   13    13     1     0     0
SMALL
GAST_HUCK


@<TRIPOS>ATOM
      1 C1         10.0120   35.4330   32.6350 C.ar      1 SUB1        0.088
      2 C2         10.5500   36.4840   31.8960 C.ar      1 SUB1       -0.033
      3 C3         11.6400   37.0940   32.4870 C.ar      1 SUB1       -0.071
      4 C4         12.1260   36.7140   33.7230 C.ar      1 SUB1       -0.073
      5 C5         11.5350   35.6690   34.4060 C.ar      1 SUB1       -0.071
      6 C6         10.4420   35.0130   33.9000 C.ar      1 SUB1       -0.033
      7 O1          8.9550   34.7450   32.0780 O.3       1 SUB1       -0.333
      8 H21        10.1480   36.7967   30.9391 H         1 SUB1        0.054
      9 H31        12.1332   37.9027   31.9599 H         1 SUB1        0.059
     10 H41        12.9712   37.2359   34.1569 H         1 SUB1        0.052
     11 H51        11.9435   35.3610   35.3617 H         1 SUB1        0.059
     12 H61         9.9426   34.2198   34.4446 H         1 SUB1        0.054
     13 H71         8.7517   35.1142   31.2267 H         1 SUB1        0.248
@<TRIPOS>BOND
     1    1    7 1  
     2    1    6 ar 
     3    1    2 ar 
     4    2    3 ar 
     5    3    4 ar 
     6    4    5 ar 
     7    5    6 ar 
     8    2    8 1  
     9    3    9 1  
    10    4   10 1  
    11    5   11 1  
    12    6   12 1  
    13    7   13 1  
@<TRIPOS>SUBSTRUCTURE
     1 SUB1        1 GROUP

