1nw5_ligand
  -I-interpret- 

 50 52  0  0  0  0  0  0  0  0999 V2000
   26.5530   16.9510    0.1820 N   0  3  0  0  0
   26.6910   16.9820   -1.2790 C   0  0  0  0  0
   26.7070   15.5780   -1.9060 C   0  0  0  0  0
   26.8530   15.4790   -3.1280 O   0  0  0  0  0
   26.5610   14.6140   -1.1460 O   0  5  0  0  0
   27.9940   17.6990   -1.7220 C   0  0  0  0  0
   27.9200   19.2490   -1.5940 C   0  0  0  0  0
   29.4590   20.1320   -2.0780 S   0  0  0  0  0
   30.5550   19.9410   -0.6360 C   0  0  0  0  0
   29.0000   21.8750   -2.1740 C   0  0  0  0  0
   28.1210   22.2410   -3.3800 C   0  0  0  0  0
   27.7670   23.6090   -3.3560 O   0  0  0  0  0
   28.7410   21.9740   -4.7670 C   0  0  0  0  0
   28.0630   20.9470   -5.4800 O   0  0  0  0  0
   28.8200   23.3610   -5.4010 C   0  0  0  0  0
   28.4440   23.3480   -6.7790 O   0  0  0  0  0
   27.7070   24.1130   -4.6670 C   0  0  0  0  0
   27.8700   25.5720   -4.5350 N   0  0  0  0  0
   28.9550   26.3660   -4.3770 C   0  0  0  0  0
   28.6560   27.6680   -4.2810 N   0  0  0  0  0
   27.2640   27.7470   -4.3810 C   0  0  0  0  0
   26.2800   28.7290   -4.3590 C   0  0  0  0  0
   26.5870   30.0440   -4.2040 N   0  0  0  0  0
   24.9470   28.4030   -4.4920 N   0  0  0  0  0
   24.5890   27.1090   -4.6490 C   0  0  0  0  0
   25.4790   26.0980   -4.6800 N   0  0  0  0  0
   26.7890   26.4310   -4.5440 C   0  0  0  0  0
   26.5491   17.8965    0.5314 H   0  0  0  0  0
   25.6862   16.5037    0.4360 H   0  0  0  0  0
   27.3289   16.4536    0.5901 H   0  0  0  0  0
   25.8388   17.5444   -1.6883 H   0  0  0  0  0
   28.8249   17.3471   -1.0929 H   0  0  0  0  0
   28.1927   17.4559   -2.7762 H   0  0  0  0  0
   27.1094   19.6151   -2.2412 H   0  0  0  0  0
   27.7067   19.5036   -0.5454 H   0  0  0  0  0
   31.5101   20.4460   -0.8427 H   0  0  0  0  0
   30.0921   20.3993    0.2503 H   0  0  0  0  0
   30.7470   18.8741   -0.4495 H   0  0  0  0  0
   28.4421   22.1402   -1.2639 H   0  0  0  0  0
   29.9193   22.4755   -2.2388 H   0  0  0  0  0
   27.2071   21.6325   -3.3137 H   0  0  0  0  0
   29.7760   21.6254   -4.6359 H   0  0  0  0  0
   28.4804   20.8204   -6.3240 H   0  0  0  0  0
   29.8059   23.8273   -5.2579 H   0  0  0  0  0
   27.5499   23.0373   -6.8592 H   0  0  0  0  0
   26.7379   23.9123   -5.1471 H   0  0  0  0  0
   29.9734   25.9828   -4.3322 H   0  0  0  0  0
   25.8371   30.7499   -4.1915 H   0  0  0  0  0
   27.5696   30.3346   -4.0991 H   0  0  0  0  0
   23.5362   26.8736   -4.7550 H   0  0  0  0  0
  1  2  1  0  0  0
  2  3  1  0  0  0
  2  6  1  0  0  0
  3  4  2  0  0  0
  3  5  1  0  0  0
  6  7  1  0  0  0
  7  8  1  0  0  0
  8  9  1  0  0  0
  8 10  1  0  0  0
 10 11  1  0  0  0
 11 12  1  0  0  0
 11 13  1  0  0  0
 12 17  1  0  0  0
 13 14  1  0  0  0
 13 15  1  0  0  0
 15 16  1  0  0  0
 15 17  1  0  0  0
 17 18  1  0  0  0
 18 19  1  0  0  0
 18 27  1  0  0  0
 19 20  2  0  0  0
 20 21  1  0  0  0
 21 22  4  0  0  0
 21 27  4  0  0  0
 22 23  1  0  0  0
 22 24  4  0  0  0
 24 25  4  0  0  0
 25 26  4  0  0  0
 26 27  4  0  0  0
  1 28  1  0  0  0
  1 29  1  0  0  0
  1 30  1  0  0  0
  2 31  1  0  0  0
  6 32  1  0  0  0
  6 33  1  0  0  0
  7 34  1  0  0  0
  7 35  1  0  0  0
  9 36  1  0  0  0
  9 37  1  0  0  0
  9 38  1  0  0  0
 10 39  1  0  0  0
 10 40  1  0  0  0
 11 41  1  0  0  0
 13 42  1  0  0  0
 14 43  1  0  0  0
 15 44  1  0  0  0
 16 45  1  0  0  0
 17 46  1  0  0  0
 19 47  1  0  0  0
 23 48  1  0  0  0
 23 49  1  0  0  0
 25 50  1  0  0  0
M  END
$$$$
