### 
### Created by X-TOOL on Tue Oct 25 00:19:38 2005
### 

@<TRIPOS>MOLECULE
1nw5_ligand
   50    52     1     0     0
SMALL
GAST_HUCK


@<TRIPOS>ATOM
      1 N          26.5530   16.9510    0.1820 N.4       1 SUB1        0.238
      2 CA         26.6910   16.9820   -1.2790 C.3       1 SUB1        0.019
      3 C          26.7070   15.5780   -1.9060 C.2       1 SUB1        0.076
      4 O          26.8530   15.4790   -3.1280 O.co2     1 SUB1       -0.561
      5 OXT        26.5610   14.6140   -1.1460 O.co2     1 SUB1       -0.561
      6 CB         27.9940   17.6990   -1.7220 C.3       1 SUB1        0.047
      7 CG         27.9200   19.2490   -1.5940 C.3       1 SUB1        0.117
      8 SD         29.4590   20.1320   -2.0780 S.3       1 SUB1       -0.010
      9 CE         30.5550   19.9410   -0.6360 C.3       1 SUB1        0.100
     10 C5'        29.0000   21.8750   -2.1740 C.3       1 SUB1        0.138
     11 C4'        28.1210   22.2410   -3.3800 C.3       1 SUB1        0.135
     12 O4'        27.7670   23.6090   -3.3560 O.3       1 SUB1       -0.334
     13 C3'        28.7410   21.9740   -4.7670 C.3       1 SUB1        0.117
     14 O3'        28.0630   20.9470   -5.4800 O.3       1 SUB1       -0.386
     15 C2'        28.8200   23.3610   -5.4010 C.3       1 SUB1        0.139
     16 O2'        28.4440   23.3480   -6.7790 O.3       1 SUB1       -0.384
     17 C1'        27.7070   24.1130   -4.6670 C.3       1 SUB1        0.201
     18 N9         27.8700   25.5720   -4.5350 N.pl3     1 SUB1       -0.192
     19 C8         28.9550   26.3660   -4.3770 C.2       1 SUB1        0.112
     20 N7         28.6560   27.6680   -4.2810 N.2       1 SUB1       -0.296
     21 C5         27.2640   27.7470   -4.3810 C.ar      1 SUB1        0.105
     22 C6         26.2800   28.7290   -4.3590 C.ar      1 SUB1        0.130
     23 N6         26.5870   30.0440   -4.2040 N.pl3     1 SUB1       -0.315
     24 N1         24.9470   28.4030   -4.4920 N.ar      1 SUB1       -0.270
     25 C2         24.5890   27.1090   -4.6490 C.ar      1 SUB1        0.053
     26 N3         25.4790   26.0980   -4.6800 N.ar      1 SUB1       -0.271
     27 C4         26.7890   26.4310   -4.5440 C.ar      1 SUB1        0.161
     28 H11        26.5491   17.8965    0.5314 H         1 SUB1        0.202
     29 H12        25.6862   16.5037    0.4360 H         1 SUB1        0.202
     30 H13        27.3289   16.4536    0.5901 H         1 SUB1        0.202
     31 H21        25.8388   17.5444   -1.6883 H         1 SUB1        0.107
     32 H61        28.8249   17.3471   -1.0929 H         1 SUB1        0.040
     33 H62        28.1927   17.4559   -2.7762 H         1 SUB1        0.040
     34 H71        27.1094   19.6151   -2.2412 H         1 SUB1        0.084
     35 H72        27.7067   19.5036   -0.5454 H         1 SUB1        0.084
     36 H91        31.5101   20.4460   -0.8427 H         1 SUB1        0.080
     37 H92        30.0921   20.3993    0.2503 H         1 SUB1        0.080
     38 H93        30.7470   18.8741   -0.4495 H         1 SUB1        0.080
     39 H101       28.4421   22.1402   -1.2639 H         1 SUB1        0.087
     40 H102       29.9193   22.4755   -2.2388 H         1 SUB1        0.087
     41 H111       27.2071   21.6325   -3.3137 H         1 SUB1        0.067
     42 H131       29.7760   21.6254   -4.6359 H         1 SUB1        0.065
     43 H141       28.4804   20.8204   -6.3240 H         1 SUB1        0.210
     44 H151       29.8059   23.8273   -5.2579 H         1 SUB1        0.068
     45 H161       27.5499   23.0373   -6.8592 H         1 SUB1        0.210
     46 H171       26.7379   23.9123   -5.1471 H         1 SUB1        0.100
     47 H191       29.9734   25.9828   -4.3322 H         1 SUB1        0.135
     48 H231       25.8371   30.7499   -4.1915 H         1 SUB1        0.182
     49 H232       27.5696   30.3346   -4.0991 H         1 SUB1        0.182
     50 H251       23.5362   26.8736   -4.7550 H         1 SUB1        0.100
@<TRIPOS>BOND
     1    1    2 1  
     2    2    3 1  
     3    2    6 1  
     4    3    4 2  
     5    3    5 2  
     6    6    7 1  
     7    7    8 1  
     8    8    9 1  
     9    8   10 1  
    10   10   11 1  
    11   11   12 1  
    12   11   13 1  
    13   12   17 1  
    14   13   14 1  
    15   13   15 1  
    16   15   16 1  
    17   15   17 1  
    18   17   18 1  
    19   18   19 1  
    20   18   27 1  
    21   19   20 2  
    22   20   21 1  
    23   21   22 ar 
    24   21   27 ar 
    25   22   23 1  
    26   22   24 ar 
    27   24   25 ar 
    28   25   26 ar 
    29   26   27 ar 
    30    1   28 1  
    31    1   29 1  
    32    1   30 1  
    33    2   31 1  
    34    6   32 1  
    35    6   33 1  
    36    7   34 1  
    37    7   35 1  
    38    9   36 1  
    39    9   37 1  
    40    9   38 1  
    41   10   39 1  
    42   10   40 1  
    43   11   41 1  
    44   13   42 1  
    45   14   43 1  
    46   15   44 1  
    47   16   45 1  
    48   17   46 1  
    49   19   47 1  
    50   23   48 1  
    51   23   49 1  
    52   25   50 1  
@<TRIPOS>SUBSTRUCTURE
     1 SUB1        1 GROUP

