### 
### Created by X-TOOL on Tue Oct 25 01:47:29 2005
### 

@<TRIPOS>MOLECULE
1tcx_ligand
   81    83     1     0     0
SMALL
GAST_HUCK


@<TRIPOS>ATOM
      1 C1         16.0320   19.1690    3.6700 C.3       1 SUB1        0.090
      2 C2         17.2640   18.5970    3.0080 C.3       1 SUB1       -0.032
      3 C3         15.4290   17.9750    4.3850 C.3       1 SUB1       -0.032
      4 C4         15.1010   19.6680    2.5830 C.3       1 SUB1       -0.032
      5 C5         15.5330   20.9730    5.2510 C.2       1 SUB1        0.320
      6 C6         14.9560   23.0620    6.2390 C.3       1 SUB1        0.079
      7 C7         15.7410   23.6020    7.4380 C.3       1 SUB1        0.006
      8 C8         16.2490   22.4870    8.3460 C.ar      1 SUB1       -0.041
      9 C9         17.6100   22.1560    8.3590 C.ar      1 SUB1       -0.060
     10 C10        18.0550   21.1190    9.1810 C.ar      1 SUB1       -0.069
     11 C11        17.1490   20.4110    9.9930 C.ar      1 SUB1       -0.069
     12 C12        15.7970   20.7450    9.9780 C.ar      1 SUB1       -0.069
     13 C13        15.3430   21.7870    9.1510 C.ar      1 SUB1       -0.060
     14 C14        14.2390   24.1750    5.4160 C.3       1 SUB1        0.082
     15 C15        13.3260   23.6540    4.3360 C.3       1 SUB1       -0.003
     16 C16        12.1530   24.5450    4.0370 C.3       1 SUB1        0.061
     17 C17        11.3850   23.9130    2.8600 C.3       1 SUB1        0.001
     18 C18         9.9830   24.4580    2.6170 C.ar      1 SUB1       -0.041
     19 C19         9.7890   25.7470    2.1020 C.ar      1 SUB1       -0.060
     20 C20         8.5010   26.2440    1.8800 C.ar      1 SUB1       -0.069
     21 C21         7.3960   25.4520    2.1700 C.ar      1 SUB1       -0.069
     22 C22         7.5900   24.1650    2.6840 C.ar      1 SUB1       -0.069
     23 C23         8.8750   23.6660    2.9090 C.ar      1 SUB1       -0.060
     24 C24        11.2680   24.6780    5.2890 C.2       1 SUB1        0.184
     25 C25         9.7290   26.0560    6.5610 C.3       1 SUB1        0.119
     26 C26        10.3910   26.7680    7.7500 C.3       1 SUB1       -0.008
     27 C27         9.4470   26.6250    8.8760 C.3       1 SUB1       -0.058
     28 C28        11.6420   26.1210    8.2630 C.3       1 SUB1       -0.058
     29 C29         8.6810   26.9950    5.9480 C.2       1 SUB1        0.138
     30 C30         7.5050   28.2600    4.7230 C.2       1 SUB1       -0.037
     31 C31         6.6720   27.3110    5.3280 C.2       1 SUB1        0.025
     32 N1         15.8970   22.2070    5.5140 N.am      1 SUB1       -0.255
     33 N2         10.6160   25.8120    5.4330 N.am      1 SUB1       -0.266
     34 N3          8.8080   28.0530    5.1270 N.2       1 SUB1       -0.337
     35 N4          7.4660   26.5120    6.1110 N.pl3     1 SUB1       -0.263
     36 O1         16.4370   20.1680    4.5570 O.3       1 SUB1       -0.258
     37 O2         14.4020   20.6100    5.6320 O.2       1 SUB1       -0.377
     38 O3         15.1250   24.9730    4.6860 O.3       1 SUB1       -0.389
     39 O4         11.1430   23.7870    6.1390 O.2       1 SUB1       -0.396
     40 H21        16.9678   17.8061    2.3032 H         1 SUB1        0.026
     41 H22        17.9295   18.1742    3.7750 H         1 SUB1        0.026
     42 H23        17.7915   19.3942    2.4638 H         1 SUB1        0.026
     43 H31        15.1270   17.2189    3.6454 H         1 SUB1        0.026
     44 H32        14.5484   18.2980    4.9596 H         1 SUB1        0.026
     45 H33        16.1742   17.5421    5.0685 H         1 SUB1        0.026
     46 H41        14.8244   18.8313    1.9246 H         1 SUB1        0.026
     47 H42        15.6088   20.4458    1.9938 H         1 SUB1        0.026
     48 H43        14.1941   20.0889    3.0416 H         1 SUB1        0.026
     49 H61        14.1551   22.4130    6.6229 H         1 SUB1        0.060
     50 H71        15.0840   24.2627    8.0226 H         1 SUB1        0.045
     51 H72        16.6026   24.1765    7.0672 H         1 SUB1        0.045
     52 H91        18.3112   22.7000    7.7366 H         1 SUB1        0.056
     53 H101       19.1068   20.8569    9.1940 H         1 SUB1        0.060
     54 H111       17.5029   19.6074   10.6287 H         1 SUB1        0.056
     55 H121       15.0965   20.2027   10.6026 H         1 SUB1        0.060
     56 H131       14.2911   22.0484    9.1367 H         1 SUB1        0.056
     57 H141       13.6662   24.7951    6.1212 H         1 SUB1        0.062
     58 H151       12.9420   22.6731    4.6526 H         1 SUB1        0.032
     59 H152       13.9142   23.5373    3.4138 H         1 SUB1        0.032
     60 H161       12.5095   25.5439    3.7454 H         1 SUB1        0.056
     61 H171       11.2991   22.8335    3.0532 H         1 SUB1        0.045
     62 H172       11.9741   24.0761    1.9455 H         1 SUB1        0.045
     63 H191       10.6485   26.3666    1.8729 H         1 SUB1        0.056
     64 H201        8.3646   27.2435    1.4831 H         1 SUB1        0.060
     65 H211        6.3936   25.8278    1.9996 H         1 SUB1        0.056
     66 H221        6.7297   23.5458    2.9110 H         1 SUB1        0.060
     67 H231        9.0093   22.6674    3.3088 H         1 SUB1        0.056
     68 H251        9.2789   25.1141    6.9078 H         1 SUB1        0.080
     69 H261       10.5819   27.8212    7.4964 H         1 SUB1        0.034
     70 H271        9.8627   27.1170    9.7677 H         1 SUB1        0.023
     71 H272        9.2872   25.5574    9.0872 H         1 SUB1        0.023
     72 H273        8.4877   27.0942    8.6121 H         1 SUB1        0.023
     73 H281       12.4242   26.1722    7.4913 H         1 SUB1        0.023
     74 H282       11.4367   25.0684    8.5076 H         1 SUB1        0.023
     75 H283       11.9833   26.6476    9.1664 H         1 SUB1        0.023
     76 H301        7.1754   29.0409    4.0392 H         1 SUB1        0.041
     77 H311        5.5940   27.2234    5.2006 H         1 SUB1        0.079
     78 H321       16.7907   22.5523    5.2274 H         1 SUB1        0.187
     79 H331       10.7337   26.5288    4.7457 H         1 SUB1        0.189
     80 H351        7.1773   25.7141    6.6949 H         1 SUB1        0.237
     81 H381       14.6354   25.6306    4.2063 H         1 SUB1        0.210
@<TRIPOS>BOND
     1    1   36 1  
     2    1    4 1  
     3    1    3 1  
     4    1    2 1  
     5   36    5 1  
     6    5   37 2  
     7    5   32 am 
     8   32    6 1  
     9    6   14 1  
    10    6    7 1  
    11    7    8 1  
    12    8   13 ar 
    13    8    9 ar 
    14    9   10 ar 
    15   10   11 ar 
    16   11   12 ar 
    17   12   13 ar 
    18   14   38 1  
    19   14   15 1  
    20   15   16 1  
    21   16   24 1  
    22   16   17 1  
    23   17   18 1  
    24   18   23 ar 
    25   18   19 ar 
    26   19   20 ar 
    27   20   21 ar 
    28   21   22 ar 
    29   22   23 ar 
    30   24   39 2  
    31   24   33 am 
    32   33   25 1  
    33   25   29 1  
    34   25   26 1  
    35   26   28 1  
    36   26   27 1  
    37   29   35 1  
    38   29   34 2  
    39   34   30 1  
    40   30   31 2  
    41   31   35 1  
    42    2   40 1  
    43    2   41 1  
    44    2   42 1  
    45    3   43 1  
    46    3   44 1  
    47    3   45 1  
    48    4   46 1  
    49    4   47 1  
    50    4   48 1  
    51    6   49 1  
    52    7   50 1  
    53    7   51 1  
    54    9   52 1  
    55   10   53 1  
    56   11   54 1  
    57   12   55 1  
    58   13   56 1  
    59   14   57 1  
    60   15   58 1  
    61   15   59 1  
    62   16   60 1  
    63   17   61 1  
    64   17   62 1  
    65   19   63 1  
    66   20   64 1  
    67   21   65 1  
    68   22   66 1  
    69   23   67 1  
    70   25   68 1  
    71   26   69 1  
    72   27   70 1  
    73   27   71 1  
    74   27   72 1  
    75   28   73 1  
    76   28   74 1  
    77   28   75 1  
    78   30   76 1  
    79   31   77 1  
    80   32   78 1  
    81   33   79 1  
    82   35   80 1  
    83   38   81 1  
@<TRIPOS>SUBSTRUCTURE
     1 SUB1        1 GROUP

