### 
### Created by X-TOOL on Mon Oct 24 23:01:49 2005
### 

@<TRIPOS>MOLECULE
1mai_ligand
   33    33     1     0     0
SMALL
GAST_HUCK


@<TRIPOS>ATOM
      1 C1         33.7280   18.0400    3.9670 C.3       1 SUB1        0.133
      2 C2         34.2380   18.5040    5.3380 C.3       1 SUB1        0.117
      3 C3         33.2000   18.2340    6.4080 C.3       1 SUB1        0.117
      4 C4         32.8800   16.7410    6.4420 C.3       1 SUB1        0.137
      5 C5         32.3710   16.2780    5.0670 C.3       1 SUB1        0.138
      6 C6         33.4170   16.5470    3.9940 C.3       1 SUB1        0.121
      7 O1         34.6770   18.2020    2.8400 O.3       1 SUB1       -0.314
      8 O2         35.4470   17.8420    5.6740 O.3       1 SUB1       -0.386
      9 O3         33.7120   18.6410    7.6590 O.3       1 SUB1       -0.386
     10 O4         31.9210   16.4820    7.5520 O.3       1 SUB1       -0.313
     11 O5         32.1700   14.8320    5.0980 O.3       1 SUB1       -0.313
     12 O6         32.9650   16.1200    2.7150 O.3       1 SUB1       -0.386
     13 P1         35.0110   19.6120    2.1900 P.3       1 SUB1        0.206
     14 O11        36.2810   19.4270    1.4430 O.co2     1 SUB1       -0.535
     15 O12        35.1080   20.5220    3.3630 O.co2     1 SUB1       -0.535
     16 O13        33.7950   19.8250    1.4150 O.co2     1 SUB1       -0.535
     17 P4         32.2600   15.7940    8.9670 P.3       1 SUB1        0.206
     18 O41        33.2000   14.7450    8.4870 O.co2     1 SUB1       -0.535
     19 O42        32.9150   16.8820    9.7050 O.co2     1 SUB1       -0.535
     20 O43        31.0040   15.3330    9.6140 O.co2     1 SUB1       -0.535
     21 P5         30.9400   14.0400    4.4450 P.3       1 SUB1        0.206
     22 O51        31.2210   12.6660    4.9280 O.co2     1 SUB1       -0.535
     23 O52        29.7500   14.7350    5.0200 O.co2     1 SUB1       -0.535
     24 O53        31.1870   14.2760    3.0180 O.co2     1 SUB1       -0.535
     25 H11        32.8130   18.6078    3.7427 H         1 SUB1        0.070
     26 H21        34.4280   19.5865    5.2932 H         1 SUB1        0.065
     27 H31        32.2836   18.7998    6.1840 H         1 SUB1        0.065
     28 H41        33.8059   16.1880    6.6586 H         1 SUB1        0.071
     29 H51        31.4313   16.7951    4.8229 H         1 SUB1        0.071
     30 H61        34.3337   15.9934    4.2452 H         1 SUB1        0.065
     31 H81        35.7455   18.1425    6.5243 H         1 SUB1        0.210
     32 H91        33.0650   18.4740    8.3342 H         1 SUB1        0.210
     33 H121       32.7876   15.1871    2.7383 H         1 SUB1        0.210
@<TRIPOS>BOND
     1    1    7 1  
     2    1    6 1  
     3    1    2 1  
     4    2    8 1  
     5    2    3 1  
     6    3    9 1  
     7    3    4 1  
     8    4   10 1  
     9    4    5 1  
    10    5   11 1  
    11    5    6 1  
    12    6   12 1  
    13   11   21 1  
    14   21   24 2  
    15   21   23 2  
    16   21   22 2  
    17   10   17 1  
    18   17   20 2  
    19   17   19 2  
    20   17   18 2  
    21    7   13 1  
    22   13   16 2  
    23   13   15 2  
    24   13   14 2  
    25    1   25 1  
    26    2   26 1  
    27    3   27 1  
    28    4   28 1  
    29    5   29 1  
    30    6   30 1  
    31    8   31 1  
    32    9   32 1  
    33   12   33 1  
@<TRIPOS>SUBSTRUCTURE
     1 SUB1        1 GROUP

