3gss_ligand
  -I-interpret- 

 66 66  0  0  0  0  0  0  0  0999 V2000
   14.7060   10.8820   23.3290 N   0  3  0  0  0
   14.5890   10.0180   24.5180 C   0  0  0  0  0
   15.6900    8.9740   24.4280 C   0  0  0  0  0
   16.1050    8.4440   25.4750 O   0  0  0  0  0
   16.1610    8.7210   23.2970 O   0  5  0  0  0
   13.2180    9.3520   24.5340 C   0  0  0  0  0
   12.9620    8.5240   25.7690 C   0  0  0  0  0
   11.5130    8.1270   25.9040 C   0  0  0  0  0
   10.7590    8.1250   24.9380 O   0  0  0  0  0
   11.1200    7.7560   27.1100 N   0  0  0  0  0
    9.7400    7.3830   27.3600 C   0  0  0  0  0
    9.3730    7.7640   28.7820 C   0  0  0  0  0
   10.2510    7.9770   29.6200 O   0  0  0  0  0
    9.5250    5.8930   27.1140 C   0  0  0  0  0
   10.2670    4.8490   28.3470 S   0  0  0  0  0
    8.0740    7.8490   29.0420 N   0  0  0  0  0
    7.6000    8.2300   30.3560 C   0  0  0  0  0
    6.9270    9.5890   30.2680 C   0  0  0  0  0
    6.1760    9.9410   31.1900 O   0  0  0  0  0
    7.1240   10.3010   29.2620 O   0  5  0  0  0
    3.8860    5.0690   25.4440 C   0  0  0  0  0
    2.6310    5.5870   25.1570 O   0  0  0  0  0
    4.9500    5.4220   24.5780 C   0  0  0  0  0
    4.6470    6.5010   23.2010 Cl  0  0  0  0  0
    6.2520    4.9130   24.8010 C   0  0  0  0  0
    7.5490    5.4180   23.6940 Cl  0  0  0  0  0
    6.4940    4.0200   25.8960 C   0  0  0  0  0
    5.4100    3.6880   26.7440 C   0  0  0  0  0
    4.1360    4.1990   26.5170 C   0  0  0  0  0
    7.8590    3.3760   26.1530 C   0  0  0  0  0
    8.6650    3.1560   25.2470 O   0  0  0  0  0
    8.3570    2.9460   27.5890 C   0  0  0  0  0
    7.8640    1.5480   28.0140 C   0  0  0  0  0
    8.3880    0.9600   29.3190 C   0  0  0  0  0
    9.8630    3.1710   27.8400 C   0  0  0  0  0
    1.5370    4.8070   24.5820 C   0  0  0  0  0
    0.7460    5.5470   23.5080 C   0  0  0  0  0
   -0.4730    5.2960   23.3800 O   0  0  0  0  0
    1.3270    6.4210   22.8180 O   0  5  0  0  0
   13.9854   11.5861   23.3628 H   0  0  0  0  0
   15.6067   11.3344   23.3201 H   0  0  0  0  0
   14.5891   10.3326   22.4920 H   0  0  0  0  0
   14.7019   10.6119   25.4369 H   0  0  0  0  0
   12.4444   10.1325   24.4855 H   0  0  0  0  0
   13.1364    8.6883   23.6607 H   0  0  0  0  0
   13.5656    7.6058   25.7183 H   0  0  0  0  0
   13.2416    9.1080   26.6582 H   0  0  0  0  0
   11.7816    7.7320   27.8594 H   0  0  0  0  0
    9.0883    7.9305   26.6632 H   0  0  0  0  0
    8.4443    5.6882   27.1061 H   0  0  0  0  0
    9.9640    5.6282   26.1408 H   0  0  0  0  0
    7.4129    7.6468   28.3195 H   0  0  0  0  0
    6.8695    7.4921   30.7191 H   0  0  0  0  0
    8.4466    8.2949   31.0552 H   0  0  0  0  0
    5.5755    3.0241   27.5848 H   0  0  0  0  0
    3.3238    3.9210   27.1790 H   0  0  0  0  0
    7.8672    3.6467   28.2812 H   0  0  0  0  0
    6.7692    1.5963   28.1083 H   0  0  0  0  0
    8.1410    0.8418   27.2175 H   0  0  0  0  0
    7.9397   -0.0331   29.4698 H   0  0  0  0  0
    9.4819    0.8555   29.2708 H   0  0  0  0  0
    8.1101    1.6101   30.1616 H   0  0  0  0  0
   10.1951    2.4893   28.6368 H   0  0  0  0  0
   10.4126    2.9583   26.9112 H   0  0  0  0  0
    1.9544    3.8980   24.1244 H   0  0  0  0  0
    0.8373    4.5348   25.3859 H   0  0  0  0  0
  2  1  1  0  0  0
  2  3  1  0  0  0
  6  2  1  0  0  0
  3  4  2  0  0  0
  3  5  1  0  0  0
  7  6  1  0  0  0
  8  7  1  0  0  0
  8  9  2  0  0  0
 10  8  1  0  0  0
 11 10  1  0  0  0
 11 12  1  0  0  0
 14 11  1  0  0  0
 12 13  2  0  0  0
 12 16  1  0  0  0
 15 14  1  0  0  0
 16 17  1  0  0  0
 17 18  1  0  0  0
 18 19  2  0  0  0
 18 20  1  0  0  0
 21 22  1  0  0  0
 23 21  4  0  0  0
 29 21  4  0  0  0
 22 36  1  0  0  0
 23 24  1  0  0  0
 25 23  4  0  0  0
 25 26  1  0  0  0
 27 25  4  0  0  0
 27 28  4  0  0  0
 30 27  1  0  0  0
 28 29  4  0  0  0
 30 31  2  0  0  0
 32 30  1  0  0  0
 32 33  1  0  0  0
 35 32  1  0  0  0
 33 34  1  0  0  0
 35 15  1  0  0  0
 36 37  1  0  0  0
 37 38  2  0  0  0
 37 39  1  0  0  0
  1 40  1  0  0  0
  1 41  1  0  0  0
  1 42  1  0  0  0
  2 43  1  0  0  0
  6 44  1  0  0  0
  6 45  1  0  0  0
  7 46  1  0  0  0
  7 47  1  0  0  0
 10 48  1  0  0  0
 11 49  1  0  0  0
 14 50  1  0  0  0
 14 51  1  0  0  0
 16 52  1  0  0  0
 17 53  1  0  0  0
 17 54  1  0  0  0
 28 55  1  0  0  0
 29 56  1  0  0  0
 32 57  1  0  0  0
 33 58  1  0  0  0
 33 59  1  0  0  0
 34 60  1  0  0  0
 34 61  1  0  0  0
 34 62  1  0  0  0
 35 63  1  0  0  0
 35 64  1  0  0  0
 36 65  1  0  0  0
 36 66  1  0  0  0
M  END
$$$$
