### 
### Created by X-TOOL on Mon Oct 24 23:03:54 2005
### 

@<TRIPOS>MOLECULE
3gss_ligand
   66    66     1     0     0
SMALL
GAST_HUCK


@<TRIPOS>ATOM
      1 N1         14.7060   10.8820   23.3290 N.4       1 SUB1        0.238
      2 CA1        14.5890   10.0180   24.5180 C.3       1 SUB1        0.017
      3 C1         15.6900    8.9740   24.4280 C.2       1 SUB1        0.076
      4 O11        16.1050    8.4440   25.4750 O.co2     1 SUB1       -0.561
      5 O12        16.1610    8.7210   23.2970 O.co2     1 SUB1       -0.561
      6 CB1        13.2180    9.3520   24.5340 C.3       1 SUB1        0.018
      7 CG1        12.9620    8.5240   25.7690 C.3       1 SUB1        0.045
      8 CD1        11.5130    8.1270   25.9040 C.2       1 SUB1        0.179
      9 OE1        10.7590    8.1250   24.9380 O.2       1 SUB1       -0.397
     10 N2         11.1200    7.7560   27.1100 N.am      1 SUB1       -0.265
     11 CA2         9.7400    7.3830   27.3600 C.3       1 SUB1        0.140
     12 C2          9.3730    7.7640   28.7820 C.2       1 SUB1        0.205
     13 O2         10.2510    7.9770   29.6200 O.2       1 SUB1       -0.394
     14 CB2         9.5250    5.8930   27.1140 C.3       1 SUB1        0.034
     15 SG2        10.2670    4.8490   28.3470 S.3       1 SUB1       -0.153
     16 N3          8.0740    7.8490   29.0420 N.am      1 SUB1       -0.271
     17 CA3         7.6000    8.2300   30.3560 C.3       1 SUB1        0.070
     18 C3          6.9270    9.5890   30.2680 C.2       1 SUB1        0.050
     19 O31         6.1760    9.9410   31.1900 O.co2     1 SUB1       -0.564
     20 O32         7.1240   10.3010   29.2620 O.co2     1 SUB1       -0.564
     21 C1          3.8860    5.0690   25.4440 C.ar      1 SUB1        0.116
     22 O2          2.6310    5.5870   25.1570 O.3       1 SUB1       -0.298
     23 C2          4.9500    5.4220   24.5780 C.ar      1 SUB1        0.089
     24 CL1         4.6470    6.5010   23.2010 Cl        1 SUB1       -0.077
     25 C3          6.2520    4.9130   24.8010 C.ar      1 SUB1        0.065
     26 CL2         7.5490    5.4180   23.6940 Cl        1 SUB1       -0.066
     27 C4          6.4940    4.0200   25.8960 C.ar      1 SUB1        0.036
     28 C5          5.4100    3.6880   26.7440 C.ar      1 SUB1       -0.051
     29 C6          4.1360    4.1990   26.5170 C.ar      1 SUB1       -0.025
     30 C7          7.8590    3.3760   26.1530 C.2       1 SUB1        0.129
     31 O1          8.6650    3.1560   25.2470 O.2       1 SUB1       -0.384
     32 C8          8.3570    2.9460   27.5890 C.3       1 SUB1        0.041
     33 C9          7.8640    1.5480   28.0140 C.3       1 SUB1       -0.037
     34 C10         8.3880    0.9600   29.3190 C.3       1 SUB1       -0.063
     35 C11         9.8630    3.1710   27.8400 C.3       1 SUB1        0.012
     36 C12         1.5370    4.8070   24.5820 C.3       1 SUB1        0.112
     37 C13         0.7460    5.5470   23.5080 C.2       1 SUB1        0.059
     38 O          -0.4730    5.2960   23.3800 O.co2     1 SUB1       -0.564
     39 OXT         1.3270    6.4210   22.8180 O.co2     1 SUB1       -0.564
     40 H11        13.9854   11.5861   23.3628 H         1 SUB1        0.202
     41 H12        15.6067   11.3344   23.3201 H         1 SUB1        0.202
     42 H13        14.5891   10.3326   22.4920 H         1 SUB1        0.202
     43 H21        14.7019   10.6119   25.4369 H         1 SUB1        0.107
     44 H61        12.4444   10.1325   24.4855 H         1 SUB1        0.038
     45 H62        13.1364    8.6883   23.6607 H         1 SUB1        0.038
     46 H71        13.5656    7.6058   25.7183 H         1 SUB1        0.051
     47 H72        13.2416    9.1080   26.6582 H         1 SUB1        0.051
     48 H101       11.7816    7.7320   27.8594 H         1 SUB1        0.188
     49 H111        9.0883    7.9305   26.6632 H         1 SUB1        0.081
     50 H141        8.4443    5.6882   27.1061 H         1 SUB1        0.042
     51 H142        9.9640    5.6282   26.1408 H         1 SUB1        0.042
     52 H161        7.4129    7.6468   28.3195 H         1 SUB1        0.190
     53 H171        6.8695    7.4921   30.7191 H         1 SUB1        0.074
     54 H172        8.4466    8.2949   31.0552 H         1 SUB1        0.074
     55 H281        5.5755    3.0241   27.5848 H         1 SUB1        0.065
     56 H291        3.3238    3.9210   27.1790 H         1 SUB1        0.056
     57 H321        7.8672    3.6467   28.2812 H         1 SUB1        0.053
     58 H331        6.7692    1.5963   28.1083 H         1 SUB1        0.029
     59 H332        8.1410    0.8418   27.2175 H         1 SUB1        0.029
     60 H341        7.9397   -0.0331   29.4698 H         1 SUB1        0.023
     61 H342        9.4819    0.8555   29.2708 H         1 SUB1        0.023
     62 H343        8.1101    1.6101   30.1616 H         1 SUB1        0.023
     63 H351       10.1951    2.4893   28.6368 H         1 SUB1        0.040
     64 H352       10.4126    2.9583   26.9112 H         1 SUB1        0.040
     65 H361        1.9544    3.8980   24.1244 H         1 SUB1        0.084
     66 H362        0.8373    4.5348   25.3859 H         1 SUB1        0.084
@<TRIPOS>BOND
     1    2    1 1  
     2    2    3 1  
     3    6    2 1  
     4    3    4 2  
     5    3    5 2  
     6    7    6 1  
     7    8    7 1  
     8    8    9 2  
     9   10    8 am 
    10   11   10 1  
    11   11   12 1  
    12   14   11 1  
    13   12   13 2  
    14   12   16 am 
    15   15   14 1  
    16   16   17 1  
    17   17   18 1  
    18   18   19 2  
    19   18   20 2  
    20   21   22 1  
    21   23   21 ar 
    22   29   21 ar 
    23   22   36 1  
    24   23   24 1  
    25   25   23 ar 
    26   25   26 1  
    27   27   25 ar 
    28   27   28 ar 
    29   30   27 1  
    30   28   29 ar 
    31   30   31 2  
    32   32   30 1  
    33   32   33 1  
    34   35   32 1  
    35   33   34 1  
    36   35   15 1  
    37   36   37 1  
    38   37   38 2  
    39   37   39 2  
    40    1   40 1  
    41    1   41 1  
    42    1   42 1  
    43    2   43 1  
    44    6   44 1  
    45    6   45 1  
    46    7   46 1  
    47    7   47 1  
    48   10   48 1  
    49   11   49 1  
    50   14   50 1  
    51   14   51 1  
    52   16   52 1  
    53   17   53 1  
    54   17   54 1  
    55   28   55 1  
    56   29   56 1  
    57   32   57 1  
    58   33   58 1  
    59   33   59 1  
    60   34   60 1  
    61   34   61 1  
    62   34   62 1  
    63   35   63 1  
    64   35   64 1  
    65   36   65 1  
    66   36   66 1  
@<TRIPOS>SUBSTRUCTURE
     1 SUB1        1 GROUP

