### 
### Created by X-TOOL on Tue Oct 25 02:34:56 2005
### 

@<TRIPOS>MOLECULE
1bq4_ligand
   24    24     1     0     0
SMALL
GAST_HUCK


@<TRIPOS>ATOM
      1 C1          7.4980   -8.7070   35.1560 C.ar      1 SUB1        0.016
      2 CO1         8.3880   -7.4520   35.1630 C.2       1 SUB1        0.073
      3 O11         9.4010   -7.3650   36.0210 O.co2     1 SUB1       -0.545
      4 O12         8.0940   -6.5670   34.3240 O.co2     1 SUB1       -0.545
      5 C2          6.1150   -8.6400   35.4940 C.ar      1 SUB1        0.016
      6 CO2         5.4950   -7.3190   36.0410 C.2       1 SUB1        0.073
      7 O21         5.2800   -7.2060   37.2810 O.co2     1 SUB1       -0.545
      8 O22         5.2170   -6.4340   35.2020 O.co2     1 SUB1       -0.545
      9 C3          5.3040   -9.7700   35.3410 C.ar      1 SUB1        0.016
     10 CO3         3.8120   -9.6980   35.6980 C.2       1 SUB1        0.073
     11 O31         3.4460   -9.8780   36.9620 O.co2     1 SUB1       -0.545
     12 O32         3.0170   -9.4470   34.7510 O.co2     1 SUB1       -0.545
     13 C4          5.8550  -10.9840   34.8810 C.ar      1 SUB1        0.016
     14 CO4         4.9580  -12.1930   34.6050 C.2       1 SUB1        0.073
     15 O41         4.4710  -12.8520   35.5740 O.co2     1 SUB1       -0.545
     16 O42         4.7660  -12.4710   33.3940 O.co2     1 SUB1       -0.545
     17 C5          7.2230  -11.0660   34.5680 C.ar      1 SUB1        0.016
     18 CO5         7.8160  -12.4220   34.1270 C.2       1 SUB1        0.073
     19 O51         7.6280  -13.4640   34.9040 O.co2     1 SUB1       -0.545
     20 O52         8.4600  -12.4840   33.0510 O.co2     1 SUB1       -0.545
     21 C6          8.0440   -9.9170   34.7060 C.ar      1 SUB1        0.016
     22 CO6         9.5640   -9.9800   34.4050 C.2       1 SUB1        0.073
     23 O61        10.3440   -9.9660   35.3890 O.co2     1 SUB1       -0.545
     24 O62         9.9280   -9.4510   33.3390 O.co2     1 SUB1       -0.545
@<TRIPOS>BOND
     1    1   21 ar 
     2    1    5 ar 
     3    1    2 1  
     4    2    4 2  
     5    2    3 2  
     6    5    9 ar 
     7    5    6 1  
     8    6    8 2  
     9    6    7 2  
    10    9   13 ar 
    11    9   10 1  
    12   10   12 2  
    13   10   11 2  
    14   13   17 ar 
    15   13   14 1  
    16   14   16 2  
    17   14   15 2  
    18   17   21 ar 
    19   17   18 1  
    20   18   20 2  
    21   18   19 2  
    22   21   22 1  
    23   22   24 2  
    24   22   23 2  
@<TRIPOS>SUBSTRUCTURE
     1 SUB1        1 GROUP

