1ew9_ligand
  -I-interpret- 

  9  8  0  0  0  0  0  0  0  0999 V2000
   73.6670   39.0110   43.5090 S   0  0  0  0  0
   74.8050   37.0220   45.3710 P   0  0  0  0  0
   75.9650   37.3180   46.3390 O   0  5  0  0  0
   74.8140   35.5370   44.9980 O   0  5  0  0  0
   73.5460   37.4230   45.9820 O   0  0  0  0  0
   75.1110   37.9520   43.8360 C   0  0  0  0  0
   73.8204   39.5338   42.6609 H   0  0  0  0  0
   76.0101   38.5750   43.9520 H   0  0  0  0  0
   75.2554   37.2519   42.9999 H   0  0  0  0  0
  6  1  1  0  0  0
  2  3  1  0  0  0
  2  4  1  0  0  0
  2  5  2  0  0  0
  2  6  1  0  0  0
  1  7  1  0  0  0
  6  8  1  0  0  0
  6  9  1  0  0  0
M  END
$$$$
