### 
### Created by X-TOOL on Mon Oct 24 23:10:19 2005
### 

@<TRIPOS>MOLECULE
1lyx_ligand
   11    10     1     0     0
SMALL
GAST_HUCK


@<TRIPOS>ATOM
      1 P          22.1250   -1.6950    6.1490 P.3       1 SUB1        0.208
      2 O1P        21.9220   -2.1910    7.7020 O.3       1 SUB1       -0.306
      3 O2P        21.8020   -2.9790    5.4330 O.co2     1 SUB1       -0.535
      4 O3P        23.5540   -1.2620    6.0550 O.co2     1 SUB1       -0.535
      5 O4P        21.1010   -0.5970    5.9980 O.co2     1 SUB1       -0.535
      6 C2         20.6500   -2.2030    8.3650 C.3       1 SUB1        0.106
      7 C1         20.9810   -2.7720    9.6560 C.2       1 SUB1        0.058
      8 O1         22.0980   -2.5820   10.4050 O.co2     1 SUB1       -0.564
      9 O2         20.1980   -3.6360   10.3390 O.co2     1 SUB1       -0.564
     10 H61        20.2450   -1.1869    8.4811 H         1 SUB1        0.083
     11 H62        19.9242   -2.8378    7.8357 H         1 SUB1        0.083
@<TRIPOS>BOND
     1    1    2 1  
     2    1    3 2  
     3    1    4 2  
     4    1    5 2  
     5    2    6 1  
     6    6    7 1  
     7    7    8 2  
     8    7    9 2  
     9    6   10 1  
    10    6   11 1  
@<TRIPOS>SUBSTRUCTURE
     1 SUB1        1 GROUP

