### 
### Created by X-TOOL on Mon Oct 24 22:41:35 2005
### 

@<TRIPOS>MOLECULE
1c83_ligand
   24    25     1     0     0
SMALL
GAST_HUCK


@<TRIPOS>ATOM
      1 C1         45.2730   11.8160    2.0900 C.ar      1 SUB1        0.090
      2 C2         45.4060   12.8930    2.9080 C.ar      1 SUB1        0.019
      3 C3         44.7280   14.0900    2.6170 C.ar      1 SUB1        0.131
      4 C4         43.9300   14.1620    1.4510 C.ar      1 SUB1        0.139
      5 C5         43.7760   13.0250    0.6270 C.ar      1 SUB1       -0.005
      6 C6         44.4320   11.8720    0.9520 C.ar      1 SUB1        0.011
      7 C9         44.5060   10.6040    0.3000 C.2       1 SUB1       -0.054
      8 C10        45.4200    9.8590    1.0550 C.2       1 SUB1        0.028
      9 N11        45.8610   10.5730    2.1030 N.pl3     1 SUB1       -0.265
     10 N12        44.8250   15.1820    3.4280 N.am      1 SUB1       -0.241
     11 C13        45.4730   15.3880    4.6380 C.2       1 SUB1        0.083
     12 C14        45.1660   16.7690    5.2480 C.2       1 SUB1       -0.097
     13 O15        45.8860   17.4310    5.9040 O.co2     1 SUB1       -0.695
     14 O16        43.8630   17.1050    5.1330 O.co2     1 SUB1       -0.695
     15 O17        46.0400   14.4980    5.2770 O.2       1 SUB1       -0.491
     16 C18        43.3010   15.4190    1.0660 C.2       1 SUB1        0.210
     17 O19        43.0980   16.2930    1.8560 O.co2     1 SUB1       -0.455
     18 O20        42.9630   15.4370   -0.2200 O.co2     1 SUB1       -0.455
     19 H21        46.0366   12.8291    3.7874 H         1 SUB1        0.050
     20 H51        43.1445   13.0671   -0.2531 H         1 SUB1        0.089
     21 H71        43.9680   10.2853   -0.5916 H         1 SUB1        0.031
     22 H81        45.7303    8.8410    0.8241 H         1 SUB1        0.095
     23 H91        46.5352   10.2412    2.8075 H         1 SUB1        0.233
     24 H101       44.3375   15.9856    3.0867 H         1 SUB1        0.245
@<TRIPOS>BOND
     1    1    9 1  
     2    1    6 ar 
     3    1    2 ar 
     4    2    3 ar 
     5    3   10 1  
     6    3    4 ar 
     7    4   16 1  
     8    4    5 ar 
     9    5    6 ar 
    10    6    7 1  
    11    7    8 2  
    12    8    9 1  
    13   16   18 2  
    14   16   17 2  
    15   10   11 am 
    16   11   15 2  
    17   11   12 1  
    18   12   14 2  
    19   12   13 2  
    20    2   19 1  
    21    5   20 1  
    22    7   21 1  
    23    8   22 1  
    24    9   23 1  
    25   10   24 1  
@<TRIPOS>SUBSTRUCTURE
     1 SUB1        1 GROUP

