5tln_ligand
  -I-interpret- 

 44 44  0  0  0  0  0  0  0  0999 V2000
   52.3086   19.6622   -6.8178 H   0  0  0  0  0
   51.3485   19.4318   -4.1994 H   0  0  0  0  0
   54.2500   17.9973   -3.5360 H   0  0  0  0  0
   51.8822   17.3175   -2.4137 H   0  0  0  0  0
   52.3411   19.0074   -2.8143 H   0  0  0  0  0
   52.3080   20.2090   -6.0410 O   0  0  0  0  0
   52.0920   19.3790   -4.8660 N   0  0  0  0  0
   53.1210   18.5310   -4.8890 C   0  0  0  0  0
   54.0270   18.6030   -5.9340 O   0  0  0  0  0
   53.2570   17.5800   -3.7590 C   0  0  0  0  0
   52.7250   17.9980   -2.6050 C   0  0  0  0  0
   53.4520   18.1170   -1.2700 C   0  0  0  0  0
   52.7090   17.7140   -0.2070 C   0  0  0  0  0
   54.7020   18.6320   -1.1320 C   0  0  0  0  0
   53.2590   17.7950    1.0050 C   0  0  0  0  0
   55.2460   18.7080    0.0740 C   0  0  0  0  0
   54.5320   18.2770    1.1450 C   0  0  0  0  0
   53.7830   16.2760   -3.6710 C   0  0  0  0  0
   55.0360   16.1580   -3.6120 O   0  0  0  0  0
   52.7620   15.3060   -3.6670 N   0  0  0  0  0
   53.2620   13.7940   -3.5870 C   0  0  0  0  0
   52.9030   13.1130   -2.4820 C   0  0  0  0  0
   53.0410   13.2540   -4.9910 C   0  0  0  0  0
   52.2520   14.0660   -5.6090 O   0  0  0  0  0
   53.6420   12.1120   -5.4960 N   0  0  0  0  0
   53.3610   11.8090   -6.8700 C   0  0  0  0  0
   53.9040   10.2230   -6.7880 C   0  0  0  0  0
   53.0240    9.9590   -5.7980 O   0  0  0  0  0
   51.7008   17.3384   -0.3396 H   0  0  0  0  0
   55.2496   18.9778   -2.0013 H   0  0  0  0  0
   52.6987   17.4796    1.8777 H   0  0  0  0  0
   56.2452   19.1080    0.2032 H   0  0  0  0  0
   54.9795   18.3154    2.1316 H   0  0  0  0  0
   51.7928   15.5482   -3.7112 H   0  0  0  0  0
   54.3559   13.8460   -3.4834 H   0  0  0  0  0
   53.3012   12.0891   -2.5368 H   0  0  0  0  0
   51.8057   13.0765   -2.4141 H   0  0  0  0  0
   53.3089   13.6171   -1.5926 H   0  0  0  0  0
   54.2358   11.5339   -4.9364 H   0  0  0  0  0
   53.9419   12.4250   -7.5722 H   0  0  0  0  0
   52.2913   11.8835   -7.1152 H   0  0  0  0  0
   54.9575   10.1263   -6.4869 H   0  0  0  0  0
   53.7304    9.6432   -7.7065 H   0  0  0  0  0
   53.1140    9.0522   -5.5293 H   0  0  0  0  0
  6  1  1  0  0  0
  6  7  1  0  0  0
  7  8  1  0  0  0
  8  9  2  0  0  0
  8 10  1  0  0  0
 10 11  1  0  0  0
 10 18  1  0  0  0
 11 12  1  0  0  0
 12 13  4  0  0  0
 12 14  4  0  0  0
 13 15  4  0  0  0
 14 16  4  0  0  0
 15 17  4  0  0  0
 16 17  4  0  0  0
 18 19  2  0  0  0
 18 20  1  0  0  0
 20 21  1  0  0  0
 21 22  1  0  0  0
 21 23  1  0  0  0
 23 24  2  0  0  0
 23 25  1  0  0  0
 25 26  1  0  0  0
 26 27  1  0  0  0
 27 28  1  0  0  0
  7  2  1  0  0  0
 10  3  1  0  0  0
 11  4  1  0  0  0
 11  5  1  0  0  0
 13 29  1  0  0  0
 14 30  1  0  0  0
 15 31  1  0  0  0
 16 32  1  0  0  0
 17 33  1  0  0  0
 20 34  1  0  0  0
 21 35  1  0  0  0
 22 36  1  0  0  0
 22 37  1  0  0  0
 22 38  1  0  0  0
 25 39  1  0  0  0
 26 40  1  0  0  0
 26 41  1  0  0  0
 27 42  1  0  0  0
 27 43  1  0  0  0
 28 44  1  0  0  0
M  END
$$$$
