6tim_ligand
  -I-interpret- 

 17 16  0  0  0  0  0  0  0  0999 V2000
   43.8349   13.8311   -7.8040 H   0  0  0  0  0
   45.1634   15.7260   -7.4499 H   0  0  0  0  0
   44.4091   15.7080   -9.0801 H   0  0  0  0  0
   46.7386   14.0345   -9.0619 H   0  0  0  0  0
   48.3349   15.6658   -8.6499 H   0  0  0  0  0
   45.6058   16.2210  -10.6194 H   0  0  0  0  0
   46.3281   14.6507  -11.1086 H   0  0  0  0  0
   44.6970   13.8400   -8.2030 O   0  0  0  0  0
   45.1100   15.1900   -8.4090 C   0  0  0  0  0
   46.4780   15.1030   -9.0410 C   0  0  0  0  0
   47.4900   15.7400   -8.2220 O   0  0  0  0  0
   46.4740   15.5560  -10.5010 C   0  0  0  0  0
   47.6000   16.2500  -11.0660 O   0  0  0  0  0
   46.7160   18.1880  -12.4610 O   0  0  0  0  0
   48.8600   17.0020  -13.1090 O   0  5  0  0  0
   46.6490   15.7170  -13.2390 O   0  5  0  0  0
   47.4480   16.8590  -12.5590 P   0  0  0  0  0
  8  1  1  0  0  0
  9  2  1  0  0  0
  9  3  1  0  0  0
 10  4  1  0  0  0
 11  5  1  0  0  0
 12  6  1  0  0  0
 12  7  1  0  0  0
  9  8  1  0  0  0
 10  9  1  0  0  0
 10 11  1  0  0  0
 10 12  1  0  0  0
 12 13  1  0  0  0
 13 17  1  0  0  0
 17 16  1  0  0  0
 17 15  1  0  0  0
 17 14  2  0  0  0
M  END
$$$$
