2drc_ligand
  -I-interpret- 

 53 55  0  0  0  0  0  0  0  0999 V2000
   14.2872   64.4410   46.3876 H   0  0  0  0  0
   14.2413   65.0683   48.0571 H   0  0  0  0  0
   19.5806   67.5615   48.8659 H   0  0  0  0  0
   18.1459   67.3637   49.9077 H   0  0  0  0  0
   20.1966   65.9498   43.3416 H   0  0  0  0  0
   22.5200   66.9412   45.4840 H   0  0  0  0  0
   21.6863   68.5323   45.4844 H   0  0  0  0  0
   23.3174   67.0863   41.9817 H   0  0  0  0  0
   22.8788   65.8282   43.1865 H   0  0  0  0  0
   24.0660   67.1066   43.6145 H   0  0  0  0  0
   21.0625   69.1345   39.6244 H   0  0  0  0  0
   22.3234   67.9598   41.0669 H   0  0  0  0  0
   19.9525   69.3281   44.4051 H   0  0  0  0  0
   18.5847   70.4703   42.7916 H   0  0  0  0  0
   17.1879   70.4494   41.1826 H   0  0  0  0  0
   17.6026   72.4284   39.0051 H   0  0  0  0  0
   15.0734   72.1569   38.7113 H   0  0  0  0  0
   15.0903   70.8663   39.9606 H   0  0  0  0  0
   15.2108   69.5917   38.1264 H   0  0  0  0  0
   16.9615   69.9015   38.3828 H   0  0  0  0  0
   16.6570   65.1860   45.8690 N   0  0  0  0  0
   15.9390   65.3410   47.0480 C   0  0  0  0  0
   14.7480   64.9240   47.1720 N   0  0  0  0  0
   16.6830   66.0210   48.0560 N   0  0  0  0  0
   17.9500   66.5140   47.9490 C   0  0  0  0  0
   18.6220   67.2120   49.0070 N   0  0  0  0  0
   18.5740   66.2980   46.6440 C   0  0  0  0  0
   19.8060   66.9530   46.4290 N   0  0  0  0  0
   20.2960   66.7900   45.1840 C   0  0  0  0  0
   19.7040   66.0900   44.2970 C   0  0  0  0  0
   18.6370   65.5810   44.4620 N   0  0  0  0  0
   18.0300   65.7100   45.7690 C   0  0  0  0  0
   21.7350   67.5440   45.0040 C   0  0  0  0  0
   22.0740   67.7220   43.5320 N   0  0  0  0  0
   23.1480   66.8860   43.0500 C   0  0  0  0  0
   19.7860   69.8970   41.1110 C   0  0  0  0  0
   20.8260   69.1570   40.6820 C   0  0  0  0  0
   21.4810   68.5360   41.4320 C   0  0  0  0  0
   21.1780   68.5390   42.7840 C   0  0  0  0  0
   20.1490   69.2830   43.3400 C   0  0  0  0  0
   19.4550   69.9110   42.4680 C   0  0  0  0  0
   18.9730   70.6500   40.1990 C   0  0  0  0  0
   19.5050   71.1000   39.0300 O   0  0  0  0  0
   17.6620   70.9510   40.4590 N   0  0  0  0  0
   16.9590   71.9360   39.7490 C   0  0  0  0  0
   16.3050   72.8880   40.7170 C   0  0  0  0  0
   16.0800   72.6090   41.9590 O   0  0  0  0  0
   15.8230   73.9840   40.1980 O   0  5  0  0  0
   15.6700   71.3490   39.1600 C   0  0  0  0  0
   15.9940   70.3640   38.1380 C   0  0  0  0  0
   16.0860   71.0030   36.7380 C   0  0  0  0  0
   16.8950   70.2420   35.8920 O   0  0  0  0  0
   15.4690   72.2270   36.4290 O   0  5  0  0  0
 23  1  1  0  0  0
 23  2  1  0  0  0
 26  3  1  0  0  0
 26  4  1  0  0  0
 30  5  1  0  0  0
 33  6  1  0  0  0
 33  7  1  0  0  0
 35  8  1  0  0  0
 35  9  1  0  0  0
 35 10  1  0  0  0
 37 11  1  0  0  0
 38 12  1  0  0  0
 40 13  1  0  0  0
 41 14  1  0  0  0
 44 15  1  0  0  0
 45 16  1  0  0  0
 49 17  1  0  0  0
 49 18  1  0  0  0
 50 19  1  0  0  0
 50 20  1  0  0  0
 32 21  4  0  0  0
 21 22  4  0  0  0
 24 22  4  0  0  0
 22 23  1  0  0  0
 25 24  4  0  0  0
 27 25  4  0  0  0
 25 26  1  0  0  0
 27 32  4  0  0  0
 28 27  4  0  0  0
 29 28  4  0  0  0
 33 29  1  0  0  0
 29 30  4  0  0  0
 30 31  4  0  0  0
 31 32  4  0  0  0
 34 33  1  0  0  0
 39 34  1  0  0  0
 34 35  1  0  0  0
 40 39  4  0  0  0
 38 39  4  0  0  0
 37 38  4  0  0  0
 36 37  4  0  0  0
 42 36  1  0  0  0
 36 41  4  0  0  0
 41 40  4  0  0  0
 44 42  1  0  0  0
 42 43  2  0  0  0
 45 44  1  0  0  0
 49 45  1  0  0  0
 45 46  1  0  0  0
 46 48  1  0  0  0
 46 47  2  0  0  0
 49 50  1  0  0  0
 50 51  1  0  0  0
 51 53  1  0  0  0
 51 52  2  0  0  0
M  END
$$$$
