### 
### Created by X-TOOL on Mon Oct 24 22:55:44 2005
### 

@<TRIPOS>MOLECULE
2drc_ligand
   53    55     1     0     0
SMALL
GAST_HUCK


@<TRIPOS>ATOM
      1 H231       14.2872   64.4410   46.3876 H         1 SUB1        0.184
      2 H232       14.2413   65.0683   48.0571 H         1 SUB1        0.184
      3 H261       19.5806   67.5615   48.8659 H         1 SUB1        0.189
      4 H262       18.1459   67.3637   49.9077 H         1 SUB1        0.189
      5 H301       20.1966   65.9498   43.3416 H         1 SUB1        0.095
      6 H331       22.5200   66.9412   45.4840 H         1 SUB1        0.068
      7 H332       21.6863   68.5323   45.4844 H         1 SUB1        0.068
      8 H351       23.3174   67.0863   41.9817 H         1 SUB1        0.045
      9 H352       22.8788   65.8282   43.1865 H         1 SUB1        0.045
     10 H353       24.0660   67.1066   43.6145 H         1 SUB1        0.045
     11 H371       21.0625   69.1345   39.6244 H         1 SUB1        0.064
     12 H381       22.3234   67.9598   41.0669 H         1 SUB1        0.053
     13 H401       19.9525   69.3281   44.4051 H         1 SUB1        0.053
     14 H411       18.5847   70.4703   42.7916 H         1 SUB1        0.064
     15 H441       17.1879   70.4494   41.1826 H         1 SUB1        0.189
     16 H451       17.6026   72.4284   39.0051 H         1 SUB1        0.078
     17 H491       15.0734   72.1569   38.7113 H         1 SUB1        0.036
     18 H492       15.0903   70.8663   39.9606 H         1 SUB1        0.036
     19 H501       15.2108   69.5917   38.1264 H         1 SUB1        0.049
     20 H502       16.9615   69.9015   38.3828 H         1 SUB1        0.049
     21 N1         16.6570   65.1860   45.8690 N.ar      1 SUB1       -0.267
     22 C2         15.9390   65.3410   47.0480 C.ar      1 SUB1        0.167
     23 NA2        14.7480   64.9240   47.1720 N.pl3     1 SUB1       -0.305
     24 N3         16.6830   66.0210   48.0560 N.ar      1 SUB1       -0.230
     25 C4         17.9500   66.5140   47.9490 C.ar      1 SUB1        0.154
     26 NA4        18.6220   67.2120   49.0070 N.pl3     1 SUB1       -0.305
     27 C4A        18.5740   66.2980   46.6440 C.ar      1 SUB1        0.133
     28 N5         19.8060   66.9530   46.4290 N.ar      1 SUB1       -0.262
     29 C6         20.2960   66.7900   45.1840 C.ar      1 SUB1        0.080
     30 C7         19.7040   66.0900   44.2970 C.ar      1 SUB1        0.047
     31 N8         18.6370   65.5810   44.4620 N.ar      1 SUB1       -0.265
     32 C8A        18.0300   65.7100   45.7690 C.ar      1 SUB1        0.118
     33 C9         21.7350   67.5440   45.0040 C.3       1 SUB1        0.074
     34 N10        22.0740   67.7220   43.5320 N.3       1 SUB1       -0.237
     35 CM         23.1480   66.8860   43.0500 C.3       1 SUB1        0.010
     36 C11        19.7860   69.8970   41.1110 C.ar      1 SUB1        0.036
     37 C12        20.8260   69.1570   40.6820 C.ar      1 SUB1       -0.054
     38 C13        21.4810   68.5360   41.4320 C.ar      1 SUB1       -0.041
     39 C14        21.1780   68.5390   42.7840 C.ar      1 SUB1        0.036
     40 C15        20.1490   69.2830   43.3400 C.ar      1 SUB1       -0.041
     41 C16        19.4550   69.9110   42.4680 C.ar      1 SUB1       -0.054
     42 C          18.9730   70.6500   40.1990 C.2       1 SUB1        0.198
     43 O          19.5050   71.1000   39.0300 O.2       1 SUB1       -0.391
     44 N          17.6620   70.9510   40.4590 N.am      1 SUB1       -0.271
     45 CA         16.9590   71.9360   39.7490 C.3       1 SUB1        0.083
     46 CT         16.3050   72.8880   40.7170 C.2       1 SUB1        0.053
     47 O1         16.0800   72.6090   41.9590 O.co2     1 SUB1       -0.564
     48 O2         15.8230   73.9840   40.1980 O.co2     1 SUB1       -0.564
     49 CB         15.6700   71.3490   39.1600 C.3       1 SUB1       -0.007
     50 CG         15.9940   70.3640   38.1380 C.3       1 SUB1       -0.009
     51 CD         16.0860   71.0030   36.7380 C.2       1 SUB1        0.028
     52 OE1        16.8950   70.2420   35.8920 O.co2     1 SUB1       -0.567
     53 OE2        15.4690   72.2270   36.4290 O.co2     1 SUB1       -0.567
@<TRIPOS>BOND
     1   23    1 1  
     2   23    2 1  
     3   26    3 1  
     4   26    4 1  
     5   30    5 1  
     6   33    6 1  
     7   33    7 1  
     8   35    8 1  
     9   35    9 1  
    10   35   10 1  
    11   37   11 1  
    12   38   12 1  
    13   40   13 1  
    14   41   14 1  
    15   44   15 1  
    16   45   16 1  
    17   49   17 1  
    18   49   18 1  
    19   50   19 1  
    20   50   20 1  
    21   32   21 ar 
    22   21   22 ar 
    23   24   22 ar 
    24   22   23 1  
    25   25   24 ar 
    26   27   25 ar 
    27   25   26 1  
    28   27   32 ar 
    29   28   27 ar 
    30   29   28 ar 
    31   33   29 1  
    32   29   30 ar 
    33   30   31 ar 
    34   31   32 ar 
    35   34   33 1  
    36   39   34 1  
    37   34   35 1  
    38   40   39 ar 
    39   38   39 ar 
    40   37   38 ar 
    41   36   37 ar 
    42   42   36 1  
    43   36   41 ar 
    44   41   40 ar 
    45   44   42 am 
    46   42   43 2  
    47   45   44 1  
    48   49   45 1  
    49   45   46 1  
    50   46   48 2  
    51   46   47 2  
    52   49   50 1  
    53   50   51 1  
    54   51   53 2  
    55   51   52 2  
@<TRIPOS>SUBSTRUCTURE
     1 SUB1        1 GROUP

