### 
### Created by X-TOOL on Tue Oct 25 02:35:07 2005
### 

@<TRIPOS>MOLECULE
1bgq_ligand
   42    44     1     0     0
SMALL
GAST_HUCK


@<TRIPOS>ATOM
      1 C1         18.4690   -2.4070   -5.8760 C.2       1 SUB1        0.245
      2 C2         18.5100   -3.2310   -4.6240 C.ar      1 SUB1        0.083
      3 C3         19.4790   -4.3160   -4.5800 C.ar      1 SUB1        0.097
      4 C4         19.6000   -5.1560   -3.4760 C.ar      1 SUB1       -0.004
      5 C5         18.7830   -4.9600   -2.3700 C.ar      1 SUB1        0.093
      6 C6         17.8120   -3.9000   -2.3540 C.ar      1 SUB1        0.065
      7 C7         17.6550   -3.0250   -3.4560 C.ar      1 SUB1       -0.007
      8 C8         16.5890   -1.8830   -3.4010 C.3       1 SUB1        0.050
      9 C9         15.0750   -2.2340   -3.3570 C.2       1 SUB1        0.118
     10 C10        14.5570   -3.4150   -4.0690 C.2       1 SUB1       -0.022
     11 C11        14.6440   -3.6110   -5.3810 C.2       1 SUB1       -0.064
     12 C12        14.1340   -4.7860   -6.0820 C.2       1 SUB1       -0.056
     13 C13        14.2120   -5.0040   -7.3960 C.2       1 SUB1       -0.030
     14 C14        14.7920   -4.2240   -8.5820 C.3       1 SUB1        0.125
     15 C15        15.0290   -2.8100   -8.6020 C.3       1 SUB1        0.106
     16 C16        16.4730   -2.3270   -8.7000 C.3       1 SUB1        0.009
     17 C17        17.0310   -1.4340   -7.6190 C.3       1 SUB1        0.086
     18 C18        16.2030   -0.2300   -7.2080 C.3       1 SUB1       -0.034
     19 O1         17.2500   -2.2200   -6.3820 O.3       1 SUB1       -0.279
     20 O2         19.4910   -1.9350   -6.4090 O.2       1 SUB1       -0.373
     21 O3         20.3200   -4.5840   -5.6190 O.3       1 SUB1       -0.331
     22 O4         18.8700   -5.7710   -1.2580 O.3       1 SUB1       -0.333
     23 O5         14.3110   -1.5570   -2.7190 O.2       1 SUB1       -0.392
     24 O6         14.2030   -3.4490   -9.5650 O.3       1 SUB1       -0.347
     25 CL1        16.8650   -3.7540   -0.9320 Cl        1 SUB1       -0.093
     26 H41        20.3283   -5.9589   -3.4797 H         1 SUB1        0.043
     27 H81        16.7446   -1.2601   -4.2942 H         1 SUB1        0.064
     28 H82        16.8040   -1.2911   -2.4991 H         1 SUB1        0.064
     29 H101       14.0660   -4.1853   -3.4761 H         1 SUB1        0.050
     30 H111       15.1308   -2.8396   -5.9759 H         1 SUB1        0.071
     31 H121       13.6473   -5.5515   -5.4795 H         1 SUB1        0.047
     32 H131       13.7619   -5.9499   -7.6935 H         1 SUB1        0.089
     33 H141       15.6127   -4.8622   -8.9413 H         1 SUB1        0.086
     34 H151       14.5198   -2.1521   -7.8823 H         1 SUB1        0.066
     35 H161       16.5631   -1.7767   -9.6482 H         1 SUB1        0.032
     36 H162       17.1091   -3.2238   -8.7346 H         1 SUB1        0.032
     37 H171       17.9992   -1.0606   -7.9839 H         1 SUB1        0.064
     38 H181       16.7297    0.3246   -6.4174 H         1 SUB1        0.026
     39 H182       15.2266   -0.5680   -6.8306 H         1 SUB1        0.026
     40 H183       16.0527    0.4260   -8.0781 H         1 SUB1        0.026
     41 H211       20.8635   -3.8236   -5.7893 H         1 SUB1        0.251
     42 H221       18.2374   -5.4858   -0.6092 H         1 SUB1        0.250
@<TRIPOS>BOND
     1    1   20 2  
     2    1   19 1  
     3    1    2 1  
     4    2    7 ar 
     5    2    3 ar 
     6    3   21 1  
     7    3    4 ar 
     8    4    5 ar 
     9    5   22 1  
    10    5    6 ar 
    11    6    7 ar 
    12    7    8 1  
    13    8    9 1  
    14    9   23 2  
    15    9   10 1  
    16   10   11 2  
    17   11   12 1  
    18   12   13 2  
    19   13   14 1  
    20   14   24 1  
    21   14   15 1  
    22   15   24 1  
    23   15   16 1  
    24   16   17 1  
    25   17   19 1  
    26   17   18 1  
    27    6   25 1  
    28    4   26 1  
    29    8   27 1  
    30    8   28 1  
    31   10   29 1  
    32   11   30 1  
    33   12   31 1  
    34   13   32 1  
    35   14   33 1  
    36   15   34 1  
    37   16   35 1  
    38   16   36 1  
    39   17   37 1  
    40   18   38 1  
    41   18   39 1  
    42   18   40 1  
    43   21   41 1  
    44   22   42 1  
@<TRIPOS>SUBSTRUCTURE
     1 SUB1        1 GROUP

