### 
### Created by X-TOOL on Tue Oct 25 01:55:08 2005
### 

@<TRIPOS>MOLECULE
1f4x_ligand
   43    43     1     0     0
SMALL
GAST_HUCK


@<TRIPOS>ATOM
      1 C1         -7.8070  -21.7350   18.3110 C.3       1 SUB1        0.188
      2 O1         -8.3470  -21.8120   19.6040 O.3       1 SUB1       -0.352
      3 C7         -8.2540  -23.1530   20.1440 C.3       1 SUB1        0.040
      4 C2         -8.2330  -20.4470   17.6300 C.3       1 SUB1        0.137
      5 O2         -7.5690  -20.2700   16.3690 O.3       1 SUB1       -0.372
      6 C8         -6.1850  -19.9980   16.6490 C.3       1 SUB1        0.037
      7 C3         -9.7530  -20.4310   17.3620 C.3       1 SUB1        0.111
      8 O3        -10.0820  -19.3010   16.5180 O.3       1 SUB1       -0.387
      9 C4        -10.1110  -21.7190   16.6250 C.3       1 SUB1        0.096
     10 N4        -11.5860  -21.9050   16.4020 N.am      1 SUB1       -0.277
     11 C9        -11.8900  -21.6680   15.1410 C.2       1 SUB1        0.205
     12 O9        -10.9450  -21.3860   14.4220 O.2       1 SUB1       -0.394
     13 C5         -9.5410  -22.9810   17.2830 C.3       1 SUB1        0.084
     14 O5         -8.0930  -22.8950   17.5250 O.3       1 SUB1       -0.343
     15 C6         -9.8510  -24.2360   16.4340 C.3       1 SUB1       -0.036
     16 C12       -15.1280  -23.0140   13.6980 C.3       1 SUB1        0.049
     17 O12       -16.0240  -22.9060   14.8070 O.3       1 SUB1       -0.395
     18 C11       -13.8460  -23.0380   14.4390 C.3       1 SUB1        0.014
     19 C10       -13.1310  -21.6910   14.2410 C.3       1 SUB1        0.146
     20 O10       -13.8570  -20.4940   14.2140 O.3       1 SUB1       -0.371
     21 H11        -6.7134  -21.6930   18.4218 H         1 SUB1        0.094
     22 H31        -8.6864  -23.1718   21.1553 H         1 SUB1        0.052
     23 H32        -7.1979  -23.4569   20.1911 H         1 SUB1        0.052
     24 H33        -8.8071  -23.8485   19.4957 H         1 SUB1        0.052
     25 H41        -7.9758  -19.6063   18.2911 H         1 SUB1        0.067
     26 H61        -5.6408  -19.8559   15.7037 H         1 SUB1        0.052
     27 H62        -5.7489  -20.8447   17.1994 H         1 SUB1        0.052
     28 H63        -6.1066  -19.0853   17.2580 H         1 SUB1        0.052
     29 H71       -10.3062  -20.3664   18.3106 H         1 SUB1        0.064
     30 H81        -9.5873  -19.3569   15.7089 H         1 SUB1        0.210
     31 H91        -9.6462  -21.6383   15.6313 H         1 SUB1        0.061
     32 H101      -12.2422  -22.1703   17.1084 H         1 SUB1        0.186
     33 H131      -10.0369  -23.0972   18.2580 H         1 SUB1        0.062
     34 H151       -9.4319  -25.1252   16.9276 H         1 SUB1        0.025
     35 H152       -9.4012  -24.1242   15.4364 H         1 SUB1        0.025
     36 H153      -10.9404  -24.3513   16.3342 H         1 SUB1        0.025
     37 H161      -15.2906  -23.9386   13.1247 H         1 SUB1        0.056
     38 H162      -15.1991  -22.1474   13.0242 H         1 SUB1        0.056
     39 H171      -16.9185  -22.8781   14.4884 H         1 SUB1        0.209
     40 H181      -14.0413  -23.1986   15.5095 H         1 SUB1        0.034
     41 H182      -13.2131  -23.8519   14.0556 H         1 SUB1        0.034
     42 H191      -12.7363  -21.7535   13.2162 H         1 SUB1        0.084
     43 H201      -14.6052  -20.5917   13.6368 H         1 SUB1        0.213
@<TRIPOS>BOND
     1    1   14 1  
     2    1    4 1  
     3    1    2 1  
     4    2    3 1  
     5    4    7 1  
     6    4    5 1  
     7    5    6 1  
     8    7    9 1  
     9    7    8 1  
    10    9   13 1  
    11    9   10 1  
    12   10   11 am 
    13   11   19 1  
    14   11   12 2  
    15   19   20 1  
    16   19   18 1  
    17   18   16 1  
    18   16   17 1  
    19   13   15 1  
    20   13   14 1  
    21    1   21 1  
    22    3   22 1  
    23    3   23 1  
    24    3   24 1  
    25    4   25 1  
    26    6   26 1  
    27    6   27 1  
    28    6   28 1  
    29    7   29 1  
    30    8   30 1  
    31    9   31 1  
    32   10   32 1  
    33   13   33 1  
    34   15   34 1  
    35   15   35 1  
    36   15   36 1  
    37   16   37 1  
    38   16   38 1  
    39   17   39 1  
    40   18   40 1  
    41   18   41 1  
    42   19   42 1  
    43   20   43 1  
@<TRIPOS>SUBSTRUCTURE
     1 SUB1        1 GROUP

