1q95_ligand
  -I-interpret- 

 22 21  0  0  0  0  0  0  0  0999 V2000
   33.4760   54.4570   63.9920 P   0  0  0  0  0
   34.1190   55.7270   63.7230 O   0  0  0  0  0
   32.8700   54.3920   65.3740 O   0  5  0  0  0
   34.4750   53.2940   63.7970 O   0  5  0  0  0
   32.1060   54.0500   62.8310 C   0  0  0  0  0
   32.4750   54.4020   61.4420 C   0  0  0  0  0
   33.1810   53.6500   60.7230 O   0  0  0  0  0
   32.0560   55.5270   60.9840 N   0  0  0  0  0
   32.2790   56.1030   59.7120 C   0  0  0  0  0
   33.6950   56.5450   59.4140 C   0  0  0  0  0
   34.6240   56.3920   60.2880 O   0  5  0  0  0
   34.0120   57.0650   58.3180 O   0  0  0  0  0
   31.2510   57.3080   59.4870 C   0  0  0  0  0
   31.2820   58.4880   60.4680 C   0  0  0  0  0
   30.4700   59.5020   60.3460 O   0  5  0  0  0
   32.1240   58.4630   61.4220 O   0  0  0  0  0
   31.2078   54.6153   63.1202 H   0  0  0  0  0
   31.8943   52.9720   62.8861 H   0  0  0  0  0
   31.4967   56.0683   61.6119 H   0  0  0  0  0
   32.0410   55.3236   58.9732 H   0  0  0  0  0
   30.2376   56.8818   59.5233 H   0  0  0  0  0
   31.4419   57.7149   58.4830 H   0  0  0  0  0
  1  2  2  0  0  0
  1  3  1  0  0  0
  1  4  1  0  0  0
  1  5  1  0  0  0
  5  6  1  0  0  0
  6  7  2  0  0  0
  6  8  1  0  0  0
  8  9  1  0  0  0
  9 10  1  0  0  0
  9 13  1  0  0  0
 10 11  1  0  0  0
 10 12  2  0  0  0
 13 14  1  0  0  0
 14 15  1  0  0  0
 14 16  2  0  0  0
  5 17  1  0  0  0
  5 18  1  0  0  0
  8 19  1  0  0  0
  9 20  1  0  0  0
 13 21  1  0  0  0
 13 22  1  0  0  0
M  END
$$$$
