### 
### Created by X-TOOL on Tue Oct 25 02:30:13 2005
### 

@<TRIPOS>MOLECULE
1q95_ligand
   22    21     1     0     0
SMALL
GAST_HUCK


@<TRIPOS>ATOM
      1 P          33.4760   54.4570   63.9920 P.3       1 SUB1        0.081
      2 O1P        34.1190   55.7270   63.7230 O.co2     1 SUB1       -0.541
      3 O2P        32.8700   54.3920   65.3740 O.co2     1 SUB1       -0.541
      4 O3P        34.4750   53.2940   63.7970 O.co2     1 SUB1       -0.541
      5 C1P        32.1060   54.0500   62.8310 C.3       1 SUB1        0.083
      6 C1         32.4750   54.4020   61.4420 C.2       1 SUB1        0.186
      7 O1         33.1810   53.6500   60.7230 O.2       1 SUB1       -0.396
      8 N2         32.0560   55.5270   60.9840 N.am      1 SUB1       -0.267
      9 C2         32.2790   56.1030   59.7120 C.3       1 SUB1        0.092
     10 C4         33.6950   56.5450   59.4140 C.2       1 SUB1        0.056
     11 O2         34.6240   56.3920   60.2880 O.co2     1 SUB1       -0.564
     12 O3         34.0120   57.0650   58.3180 O.co2     1 SUB1       -0.564
     13 C3         31.2510   57.3080   59.4870 C.3       1 SUB1        0.021
     14 C5         31.2820   58.4880   60.4680 C.2       1 SUB1        0.033
     15 O4         30.4700   59.5020   60.3460 O.co2     1 SUB1       -0.566
     16 O5         32.1240   58.4630   61.4220 O.co2     1 SUB1       -0.566
     17 H51        31.2078   54.6153   63.1202 H         1 SUB1        0.057
     18 H52        31.8943   52.9720   62.8861 H         1 SUB1        0.057
     19 H81        31.4967   56.0683   61.6119 H         1 SUB1        0.190
     20 H91        32.0410   55.3236   58.9732 H         1 SUB1        0.081
     21 H131       30.2376   56.8818   59.5233 H         1 SUB1        0.054
     22 H132       31.4419   57.7149   58.4830 H         1 SUB1        0.054
@<TRIPOS>BOND
     1    1    2 2  
     2    1    3 2  
     3    1    4 2  
     4    1    5 1  
     5    5    6 1  
     6    6    7 2  
     7    6    8 am 
     8    8    9 1  
     9    9   10 1  
    10    9   13 1  
    11   10   11 2  
    12   10   12 2  
    13   13   14 1  
    14   14   15 2  
    15   14   16 2  
    16    5   17 1  
    17    5   18 1  
    18    8   19 1  
    19    9   20 1  
    20   13   21 1  
    21   13   22 1  
@<TRIPOS>SUBSTRUCTURE
     1 SUB1        1 GROUP

