### 
### Created by X-TOOL on Tue Oct 25 00:11:01 2005
### 

@<TRIPOS>MOLECULE
1sgx_ligand
   36    38     1     0     0
SMALL
GAST_HUCK


@<TRIPOS>ATOM
      1 P         -15.1030  -10.8650  -21.9930 P.3       1 SUB1        0.205
      2 O1P       -14.5240  -12.0820  -22.6500 O.co2     1 SUB1       -0.535
      3 O2P       -16.5240  -10.8130  -21.5250 O.co2     1 SUB1       -0.535
      4 O3P       -14.2100  -10.4660  -20.7690 O.co2     1 SUB1       -0.535
      5 O5        -14.8950   -9.5710  -23.0250 O.3       1 SUB1       -0.320
      6 C5        -15.3570   -8.2140  -22.6840 C.3       1 SUB1        0.094
      7 C4        -14.4860   -7.1490  -23.3600 C.3       1 SUB1        0.118
      8 O4        -14.5340   -5.9190  -22.5470 O.3       1 SUB1       -0.336
      9 C3        -12.9520   -7.4600  -23.4470 C.3       1 SUB1        0.115
     10 O3        -12.4970   -6.9420  -24.7340 O.3       1 SUB1       -0.386
     11 C2        -12.2650   -6.7080  -22.2240 C.3       1 SUB1        0.139
     12 O2        -11.0200   -6.0500  -22.5470 O.3       1 SUB1       -0.384
     13 C1        -13.3600   -5.7080  -21.6900 C.3       1 SUB1        0.199
     14 N9        -13.8540   -5.9780  -20.2930 N.pl3     1 SUB1       -0.210
     15 C8        -13.9220   -7.1250  -19.5080 C.2       1 SUB1        0.096
     16 N7        -14.4220   -6.9870  -18.3170 N.2       1 SUB1       -0.324
     17 C5        -14.7230   -5.6270  -18.2750 C.2       1 SUB1        0.093
     18 C6        -15.3150   -4.8700  -17.1800 C.2       1 SUB1        0.213
     19 O6        -15.6200   -5.4000  -16.1210 O.2       1 SUB1       -0.409
     20 N1        -15.4630   -3.4920  -17.5350 N.am      1 SUB1       -0.184
     21 C2        -15.1060   -2.8840  -18.7700 C.2       1 SUB1        0.234
     22 N2        -15.3000   -1.5910  -18.9660 N.pl3     1 SUB1       -0.281
     23 N3        -14.5430   -3.6230  -19.8030 N.2       1 SUB1       -0.276
     24 C4        -14.3820   -4.9900  -19.4830 C.2       1 SUB1        0.116
     25 H61       -15.3061   -8.0805  -21.5933 H         1 SUB1        0.064
     26 H62       -16.3975   -8.0935  -23.0200 H         1 SUB1        0.064
     27 H71       -14.8801   -6.9692  -24.3711 H         1 SUB1        0.065
     28 H91       -12.7594   -8.5411  -23.3835 H         1 SUB1        0.065
     29 H101      -11.5669   -7.1094  -24.8305 H         1 SUB1        0.210
     30 H111      -12.0448   -7.4468  -21.4393 H         1 SUB1        0.068
     31 H121      -11.1730   -5.3986  -23.2213 H         1 SUB1        0.210
     32 H131      -12.9835   -4.6767  -21.7587 H         1 SUB1        0.100
     33 H151      -13.5736   -8.0898  -19.8737 H         1 SUB1        0.118
     34 H201      -15.8600   -2.8921  -16.8403 H         1 SUB1        0.252
     35 H221      -15.0376   -1.1613  -19.8645 H         1 SUB1        0.190
     36 H222      -15.7135   -1.0134  -18.2202 H         1 SUB1        0.190
@<TRIPOS>BOND
     1    1    2 2  
     2    1    3 2  
     3    1    4 2  
     4    1    5 1  
     5    5    6 1  
     6    6    7 1  
     7    7    8 1  
     8    7    9 1  
     9    8   13 1  
    10    9   10 1  
    11    9   11 1  
    12   11   12 1  
    13   11   13 1  
    14   13   14 1  
    15   14   15 1  
    16   14   24 1  
    17   15   16 2  
    18   16   17 1  
    19   17   18 1  
    20   17   24 2  
    21   18   19 2  
    22   18   20 am 
    23   20   21 1  
    24   21   22 1  
    25   21   23 2  
    26   23   24 1  
    27    6   25 1  
    28    6   26 1  
    29    7   27 1  
    30    9   28 1  
    31   10   29 1  
    32   11   30 1  
    33   12   31 1  
    34   13   32 1  
    35   15   33 1  
    36   20   34 1  
    37   22   35 1  
    38   22   36 1  
@<TRIPOS>SUBSTRUCTURE
     1 SUB1        1 GROUP

