1sgx_ligand
  -I-interpret- 

 36 38  0  0  0  0  0  0  0  0999 V2000
  -15.1030  -10.8650  -21.9930 P   0  0  0  0  0
  -14.5240  -12.0820  -22.6500 O   0  5  0  0  0
  -16.5240  -10.8130  -21.5250 O   0  0  0  0  0
  -14.2100  -10.4660  -20.7690 O   0  5  0  0  0
  -14.8950   -9.5710  -23.0250 O   0  0  0  0  0
  -15.3570   -8.2140  -22.6840 C   0  0  0  0  0
  -14.4860   -7.1490  -23.3600 C   0  0  0  0  0
  -14.5340   -5.9190  -22.5470 O   0  0  0  0  0
  -12.9520   -7.4600  -23.4470 C   0  0  0  0  0
  -12.4970   -6.9420  -24.7340 O   0  0  0  0  0
  -12.2650   -6.7080  -22.2240 C   0  0  0  0  0
  -11.0200   -6.0500  -22.5470 O   0  0  0  0  0
  -13.3600   -5.7080  -21.6900 C   0  0  0  0  0
  -13.8540   -5.9780  -20.2930 N   0  0  0  0  0
  -13.9220   -7.1250  -19.5080 C   0  0  0  0  0
  -14.4220   -6.9870  -18.3170 N   0  0  0  0  0
  -14.7230   -5.6270  -18.2750 C   0  0  0  0  0
  -15.3150   -4.8700  -17.1800 C   0  0  0  0  0
  -15.6200   -5.4000  -16.1210 O   0  0  0  0  0
  -15.4630   -3.4920  -17.5350 N   0  0  0  0  0
  -15.1060   -2.8840  -18.7700 C   0  0  0  0  0
  -15.3000   -1.5910  -18.9660 N   0  0  0  0  0
  -14.5430   -3.6230  -19.8030 N   0  0  0  0  0
  -14.3820   -4.9900  -19.4830 C   0  0  0  0  0
  -15.3061   -8.0805  -21.5933 H   0  0  0  0  0
  -16.3975   -8.0935  -23.0200 H   0  0  0  0  0
  -14.8801   -6.9692  -24.3711 H   0  0  0  0  0
  -12.7594   -8.5411  -23.3835 H   0  0  0  0  0
  -11.5669   -7.1094  -24.8305 H   0  0  0  0  0
  -12.0448   -7.4468  -21.4393 H   0  0  0  0  0
  -11.1730   -5.3986  -23.2213 H   0  0  0  0  0
  -12.9835   -4.6767  -21.7587 H   0  0  0  0  0
  -13.5736   -8.0898  -19.8737 H   0  0  0  0  0
  -15.8600   -2.8921  -16.8403 H   0  0  0  0  0
  -15.0376   -1.1613  -19.8645 H   0  0  0  0  0
  -15.7135   -1.0134  -18.2202 H   0  0  0  0  0
  1  2  1  0  0  0
  1  3  2  0  0  0
  1  4  1  0  0  0
  1  5  1  0  0  0
  5  6  1  0  0  0
  6  7  1  0  0  0
  7  8  1  0  0  0
  7  9  1  0  0  0
  8 13  1  0  0  0
  9 10  1  0  0  0
  9 11  1  0  0  0
 11 12  1  0  0  0
 11 13  1  0  0  0
 13 14  1  0  0  0
 14 15  1  0  0  0
 14 24  1  0  0  0
 15 16  2  0  0  0
 16 17  1  0  0  0
 17 18  1  0  0  0
 17 24  2  0  0  0
 18 19  2  0  0  0
 18 20  1  0  0  0
 20 21  1  0  0  0
 21 22  1  0  0  0
 21 23  2  0  0  0
 23 24  1  0  0  0
  6 25  1  0  0  0
  6 26  1  0  0  0
  7 27  1  0  0  0
  9 28  1  0  0  0
 10 29  1  0  0  0
 11 30  1  0  0  0
 12 31  1  0  0  0
 13 32  1  0  0  0
 15 33  1  0  0  0
 20 34  1  0  0  0
 22 35  1  0  0  0
 22 36  1  0  0  0
M  END
$$$$
