### 
### Created by X-TOOL on Mon Oct 24 23:44:47 2005
### 

@<TRIPOS>MOLECULE
1b38_ligand
   43    45     1     0     0
SMALL
GAST_HUCK


@<TRIPOS>ATOM
      1 PG         -3.9040   24.9710   15.4350 P.3       1 SUB1        0.143
      2 O1G        -4.4430   24.7710   16.7730 O.co2     1 SUB1       -0.614
      3 O2G        -3.5100   26.3670   15.1110 O.co2     1 SUB1       -0.614
      4 O3G        -5.0210   24.5800   14.4860 O.co2     1 SUB1       -0.614
      5 PB         -1.5390   24.1240   14.0510 P.3       1 SUB1        0.354
      6 O1B        -1.0190   25.5070   14.0070 O.co2     1 SUB1       -0.497
      7 O2B        -0.5640   23.0450   14.1360 O.co2     1 SUB1       -0.497
      8 O3B        -2.7130   23.9850   15.1190 O.3       1 SUB1       -0.297
      9 PA         -2.8080   25.0870   11.6450 P.3       1 SUB1        0.350
     10 O1A        -3.9180   24.4130   10.8710 O.co2     1 SUB1       -0.488
     11 O2A        -3.0730   26.4080   12.1520 O.co2     1 SUB1       -0.488
     12 O3A        -2.4940   23.9450   12.7710 O.3       1 SUB1       -0.186
     13 O5         -1.5280   25.1160   10.7000 O.3       1 SUB1       -0.280
     14 C5         -1.3230   24.0470    9.7560 C.3       1 SUB1        0.102
     15 C4          0.1470   24.2240    9.3530 C.3       1 SUB1        0.117
     16 O4          0.2670   25.3240    8.4430 O.3       1 SUB1       -0.345
     17 C3          1.0020   24.5810   10.5740 C.3       1 SUB1        0.114
     18 O3          2.2980   23.9790   10.3950 O.3       1 SUB1       -0.386
     19 C2          1.1570   26.1370   10.4540 C.3       1 SUB1        0.129
     20 O2          2.5240   26.4140   10.8540 O.3       1 SUB1       -0.385
     21 C1          1.1040   26.3300    8.9230 C.3       1 SUB1        0.172
     22 N9          0.4810   27.5940    8.5420 N.ar      1 SUB1       -0.260
     23 C8         -0.5280   28.1410    9.2580 C.ar      1 SUB1        0.142
     24 N7         -0.7080   29.3770    9.0570 N.ar      1 SUB1       -0.172
     25 C5          0.2000   29.7400    8.1750 C.ar      1 SUB1        0.238
     26 C6          0.4350   30.9830    7.5800 C.ar      1 SUB1        0.257
     27 N6         -0.1950   32.1280    7.7750 N.pl3     1 SUB1       -0.255
     28 N1          1.4530   31.0030    6.6910 N.ar      1 SUB1       -0.126
     29 C2          2.1200   29.8590    6.3980 C.ar      1 SUB1        0.199
     30 N3          1.9780   28.6720    6.9310 N.ar      1 SUB1       -0.126
     31 C4          0.9630   28.6570    7.8040 C.ar      1 SUB1        0.229
     32 H141       -1.9876   24.1541    8.8861 H         1 SUB1        0.064
     33 H142       -1.4893   23.0665   10.2260 H         1 SUB1        0.064
     34 H151        0.5159   23.2981    8.8876 H         1 SUB1        0.065
     35 H171        0.5386   24.2735   11.5231 H         1 SUB1        0.065
     36 H181        2.8481   24.1865   11.1412 H         1 SUB1        0.210
     37 H191        0.4077   26.7178   11.0119 H         1 SUB1        0.067
     38 H201        3.1214   25.9570   10.2736 H         1 SUB1        0.210
     39 H211        2.1138   26.2576    8.4928 H         1 SUB1        0.088
     40 H231       -1.1340   27.5661    9.9489 H         1 SUB1        0.118
     41 H271        0.0948   32.9699    7.2573 H         1 SUB1        0.235
     42 H272       -0.9759   32.1786    8.4447 H         1 SUB1        0.235
     43 H291        2.8700   29.9382    5.6193 H         1 SUB1        0.164
@<TRIPOS>BOND
     1    1    2 2  
     2    1    3 2  
     3    1    4 2  
     4    8    1 1  
     5    5    6 2  
     6    5    7 2  
     7    5    8 1  
     8   12    5 1  
     9    9   10 2  
    10    9   11 2  
    11    9   12 1  
    12    9   13 1  
    13   13   14 1  
    14   14   15 1  
    15   15   16 1  
    16   15   17 1  
    17   16   21 1  
    18   17   18 1  
    19   17   19 1  
    20   19   20 1  
    21   19   21 1  
    22   21   22 1  
    23   22   23 ar 
    24   22   31 ar 
    25   23   24 ar 
    26   24   25 ar 
    27   25   26 ar 
    28   25   31 ar 
    29   26   27 1  
    30   26   28 ar 
    31   28   29 ar 
    32   29   30 ar 
    33   30   31 ar 
    34   14   32 1  
    35   14   33 1  
    36   15   34 1  
    37   17   35 1  
    38   18   36 1  
    39   19   37 1  
    40   20   38 1  
    41   21   39 1  
    42   23   40 1  
    43   27   41 1  
    44   27   42 1  
    45   29   43 1  
@<TRIPOS>SUBSTRUCTURE
     1 SUB1        1 GROUP

