### 
### Created by X-TOOL on Tue Oct 25 00:09:12 2005
### 

@<TRIPOS>MOLECULE
1pa9_ligand
   19    19     1     0     0
SMALL
GAST_HUCK


@<TRIPOS>ATOM
      1 S1          5.8190   -8.5760   73.6040 S.o2      1 SUB1        0.009
      2 O4          4.3710   -8.8450   72.7660 O.3       1 SUB1       -0.034
      3 O3          5.4890   -8.1310   74.9110 O.co2     1 SUB1       -0.449
      4 O2          6.5190   -7.5680   72.8330 O.co2     1 SUB1       -0.449
      5 O1          6.5660   -9.8050   73.6820 O.co2     1 SUB1       -0.449
      6 O7          2.4450   -8.3330   74.7440 O.3       1 SUB1       -0.181
      7 O6          2.2260  -14.4920   72.6860 O.2       1 SUB1       -0.454
      8 O5          3.8230  -13.6900   71.5050 O.2       1 SUB1       -0.454
      9 C6          3.6980  -11.0680   72.5860 C.ar      1 SUB1        0.168
     10 N1          2.9630  -13.5210   72.3650 N.2       1 SUB1       -0.141
     11 C3          1.6220  -10.6910   74.6550 C.ar      1 SUB1        0.139
     12 C1          3.5100   -9.7340   73.2490 C.ar      1 SUB1        0.407
     13 C4          1.7890  -11.9930   74.0240 C.ar      1 SUB1        0.096
     14 C2          2.4610   -9.5690   74.2840 C.ar      1 SUB1        0.374
     15 C5          2.8270  -12.2100   72.9780 C.ar      1 SUB1        0.212
     16 H61         3.1174   -7.8245   74.3059 H         1 SUB1        0.352
     17 H91         4.4618  -11.1985   71.8280 H         1 SUB1        0.105
     18 H111        0.8588  -10.5592   75.4134 H         1 SUB1        0.100
     19 H131        1.1486  -12.8161   74.3199 H         1 SUB1        0.151
@<TRIPOS>BOND
     1    2    1 1  
     2    1    3 2  
     3    1    4 2  
     4    1    5 2  
     5   12    2 1  
     6   10    7 2  
     7   14   12 ar 
     8   13   15 ar 
     9   15   10 1  
    10   15    9 ar 
    11   11   14 ar 
    12   14    6 1  
    13   11   13 ar 
    14   12    9 ar 
    15   10    8 2  
    16    6   16 1  
    17    9   17 1  
    18   11   18 1  
    19   13   19 1  
@<TRIPOS>SUBSTRUCTURE
     1 SUB1        1 GROUP

