### 
### Created by X-TOOL on Tue Oct 25 02:35:50 2005
### 

@<TRIPOS>MOLECULE
1ch8_ligand
   41    44     1     0     0
SMALL
GAST_HUCK


@<TRIPOS>ATOM
      1 P1          2.7580   51.6600   41.4730 P.3       1 SUB1        0.272
      2 N9          3.3950   48.1780   44.0340 N.ar      1 SUB1       -0.283
      3 C8          2.7360   46.9970   44.1830 C.ar      1 SUB1        0.072
      4 N7          3.4310   46.0090   44.6700 N.ar      1 SUB1       -0.235
      5 C5          4.6920   46.5860   44.8750 C.ar      1 SUB1        0.218
      6 C6          5.8440   46.0260   45.3740 C.2       1 SUB1        0.351
      7 O6          6.0370   44.8670   45.7490 O.2       1 SUB1       -0.291
      8 N1          6.8910   46.9250   45.4190 N.am      1 SUB1       -0.100
      9 C2          6.7790   48.2310   45.0130 C.2       1 SUB1        0.406
     10 N2          7.8560   49.0080   45.0860 N.pl3     1 SUB1       -0.224
     11 N3          5.6780   48.7650   44.5450 N.2       1 SUB1       -0.054
     12 C4          4.6790   47.8950   44.4950 C.ar      1 SUB1        0.220
     13 O11         2.5150   52.1960   40.1150 O.co2     1 SUB1       -0.532
     14 O21         3.9440   52.3320   42.0570 O.co2     1 SUB1       -0.532
     15 O3'         1.4720   51.8250   42.4470 O.3       1 SUB1       -0.311
     16 PA         -2.5070   49.6610   44.9930 P.3       1 SUB1        0.372
     17 O1A        -3.6510   50.5980   44.9040 O.co2     1 SUB1       -0.457
     18 O2A        -1.4830   50.2210   45.8970 O.co2     1 SUB1       -0.457
     19 O3A        -2.9090   48.1890   45.5270 O.3       1 SUB1       -0.257
     20 O5'        -1.7740   49.3180   43.5920 O.3       1 SUB1       -0.253
     21 PB         -4.3100   47.4390   45.3140 P.3       1 SUB1        0.158
     22 O1B        -4.4220   46.6130   44.0790 O.co2     1 SUB1       -0.616
     23 O2B        -5.3640   48.4750   45.3160 O.co2     1 SUB1       -0.616
     24 O3B        -4.4690   46.5570   46.4900 O.co2     1 SUB1       -0.616
     25 C5'        -0.3920   48.8960   43.9080 C.3       1 SUB1        0.111
     26 C4'         0.6590   50.0600   43.9940 C.3       1 SUB1        0.121
     27 O4'         1.8580   49.6630   44.6220 O.3       1 SUB1       -0.354
     28 C1'         2.8840   49.4110   43.6810 C.3       1 SUB1        0.147
     29 C2'         2.1790   49.4850   42.3410 C.3       1 SUB1        0.140
     30 O2'         3.0060   50.0750   41.3250 O.3       1 SUB1       -0.310
     31 C3'         1.0570   50.4820   42.6240 C.3       1 SUB1        0.134
     32 H31         1.6924   46.8848   43.9119 H         1 SUB1        0.120
     33 H81         7.7745   46.6088   45.7645 H         1 SUB1        0.306
     34 H101        7.8019   49.9925   44.7883 H         1 SUB1        0.221
     35 H102        8.7442   48.6252   45.4403 H         1 SUB1        0.221
     36 H251       -0.0622   48.1968   43.1255 H         1 SUB1        0.065
     37 H252       -0.4075   48.3790   44.8788 H         1 SUB1        0.065
     38 H261        0.2130   50.9038   44.5408 H         1 SUB1        0.065
     39 H281        3.6814   50.1674   43.7245 H         1 SUB1        0.075
     40 H291        1.8070   48.5005   42.0210 H         1 SUB1        0.070
     41 H311        0.2156   50.3137   41.9358 H         1 SUB1        0.069
@<TRIPOS>BOND
     1    1   13 2  
     2    1   14 2  
     3   15    1 1  
     4    1   30 1  
     5    2    3 ar 
     6    2   12 ar 
     7   28    2 1  
     8    3    4 ar 
     9    5    4 ar 
    10    5    6 1  
    11   12    5 ar 
    12    6    7 2  
    13    6    8 am 
    14    9    8 am 
    15    9   10 1  
    16   11    9 2  
    17   12   11 1  
    18   31   15 1  
    19   16   17 2  
    20   16   18 2  
    21   16   19 1  
    22   20   16 1  
    23   19   21 1  
    24   25   20 1  
    25   21   22 2  
    26   21   23 2  
    27   21   24 2  
    28   26   25 1  
    29   27   26 1  
    30   26   31 1  
    31   27   28 1  
    32   28   29 1  
    33   29   30 1  
    34   29   31 1  
    35    3   32 1  
    36    8   33 1  
    37   10   34 1  
    38   10   35 1  
    39   25   36 1  
    40   25   37 1  
    41   26   38 1  
    42   28   39 1  
    43   29   40 1  
    44   31   41 1  
@<TRIPOS>SUBSTRUCTURE
     1 SUB1        1 GROUP

