### 
### Created by X-TOOL on Tue Oct 25 01:52:55 2005
### 

@<TRIPOS>MOLECULE
1hxb_ligand
   99   103     1     0     0
SMALL
GAST_HUCK


@<TRIPOS>ATOM
      1 O          20.1680   -3.4210    6.0800 O.2       1 SUB1       -0.376
      2 C          19.0260   -3.5990    6.5160 C.2       1 SUB1        0.229
      3 N1         17.0310   -4.8170    6.8790 N.ar      1 SUB1       -0.274
      4 C2         18.3400   -4.8180    6.5140 C.ar      1 SUB1        0.122
      5 C3         18.9700   -6.0340    6.2250 C.ar      1 SUB1       -0.014
      6 C4         18.2400   -7.2190    6.3330 C.ar      1 SUB1       -0.031
      7 C4A        16.8980   -7.1660    6.7210 C.ar      1 SUB1        0.010
      8 C5         16.1460   -8.3330    6.8450 C.ar      1 SUB1       -0.044
      9 C6         14.8060   -8.2410    7.2430 C.ar      1 SUB1       -0.055
     10 C7         14.2170   -7.0010    7.5160 C.ar      1 SUB1       -0.054
     11 C8         14.9660   -5.8350    7.3930 C.ar      1 SUB1       -0.037
     12 C8A        16.2970   -5.9290    6.9950 C.ar      1 SUB1        0.053
     13 N          18.2790   -2.6270    7.0450 N.am      1 SUB1       -0.260
     14 CA         18.7730   -1.2910    7.3000 C.3       1 SUB1        0.147
     15 C          18.6260   -0.8980    8.7610 C.2       1 SUB1        0.205
     16 O          17.7090   -0.1980    9.2080 O.2       1 SUB1       -0.394
     17 CB         18.0410   -0.3040    6.4420 C.3       1 SUB1        0.077
     18 CG         18.4490   -0.5710    5.0140 C.2       1 SUB1        0.178
     19 OD1        19.6160   -0.6910    4.6750 O.2       1 SUB1       -0.397
     20 ND2        17.5560   -0.7630    4.0770 N.am      1 SUB1       -0.301
     21 C          20.5870    0.0830   11.1880 C.3       1 SUB1        0.093
     22 O          21.8770   -0.5100   11.1080 O.3       1 SUB1       -0.388
     23 CA         19.5590   -1.0490   10.9830 C.3       1 SUB1        0.079
     24 N          19.5670   -1.3870    9.5690 N.am      1 SUB1       -0.277
     25 CB         19.8880   -2.3140   11.7920 C.3       1 SUB1        0.006
     26 CG         19.0890   -3.5050   11.3210 C.ar      1 SUB1       -0.041
     27 CD1        17.7280   -3.5760   11.5980 C.ar      1 SUB1       -0.060
     28 CD2        19.7250   -4.4940   10.5720 C.ar      1 SUB1       -0.060
     29 CE1        16.9950   -4.6560   11.1170 C.ar      1 SUB1       -0.069
     30 CE2        18.9830   -5.5600   10.1010 C.ar      1 SUB1       -0.069
     31 CZ         17.6200   -5.6400   10.3700 C.ar      1 SUB1       -0.069
     32 N1         19.4210    1.9070   12.4190 N.3       1 SUB1       -0.280
     33 CM         20.4640    0.8860   12.4880 C.3       1 SUB1        0.030
     34 C2         18.8880    2.2870   13.7380 C.3       1 SUB1        0.101
     35 C          18.2420    1.1880   14.5710 C.2       1 SUB1        0.194
     36 O          17.3660    0.4830   14.0690 O.2       1 SUB1       -0.395
     37 C3         17.8450    3.3900   13.5940 C.3       1 SUB1       -0.017
     38 C3A        18.4400    4.6080   12.9310 C.3       1 SUB1       -0.034
     39 C4         17.3550    5.6530   12.7550 C.3       1 SUB1       -0.050
     40 C5         16.3630    5.2980   11.6560 C.3       1 SUB1       -0.053
     41 C6         17.0720    5.0810   10.3330 C.3       1 SUB1       -0.053
     42 C7         17.9910    3.8940   10.5180 C.3       1 SUB1       -0.049
     43 C7A        19.0660    4.2160   11.5430 C.3       1 SUB1       -0.025
     44 C8         20.0220    3.0510   11.7430 C.3       1 SUB1        0.005
     45 N          18.7210    1.1200   15.8140 N.am      1 SUB1       -0.280
     46 C          18.3340    0.1420   16.8130 C.3       1 SUB1        0.045
     47 C1         19.1540    0.4560   18.0370 C.3       1 SUB1       -0.040
     48 C2         16.8870    0.3020   17.1980 C.3       1 SUB1       -0.040
     49 C3         18.6330   -1.2900   16.3650 C.3       1 SUB1       -0.040
     50 H141       19.8444   -1.2592    7.0530 H         1 SUB1        0.083
     51 H171       16.9541   -0.4385    6.5443 H         1 SUB1        0.055
     52 H172       18.3000    0.7246    6.7332 H         1 SUB1        0.055
     53 H201       16.5819   -0.7343    4.3012 H         1 SUB1        0.181
     54 H202       17.8477   -0.9385    3.1367 H         1 SUB1        0.181
     55 H51        20.0104   -6.0553    5.9215 H         1 SUB1        0.073
     56 H61        18.7097   -8.1720    6.1179 H         1 SUB1        0.077
     57 H81        16.5920   -9.2987    6.6363 H         1 SUB1        0.066
     58 H91        14.2157   -9.1449    7.3411 H         1 SUB1        0.065
     59 H131       17.3094   -2.8371    7.2818 H         1 SUB1        0.188
     60 H101       13.1786   -6.9492    7.8229 H         1 SUB1        0.066
     61 H111       14.5208   -4.8693    7.6035 H         1 SUB1        0.065
     62 H211       20.4666    0.8047   10.3667 H         1 SUB1        0.063
     63 H221       22.5400    0.1592   11.2300 H         1 SUB1        0.210
     64 H231       18.5617   -0.6989   11.2876 H         1 SUB1        0.060
     65 H241       20.2785   -1.9864    9.2024 H         1 SUB1        0.186
     66 H251       20.9567   -2.5487   11.6791 H         1 SUB1        0.045
     67 H252       19.6527   -2.1378   12.8520 H         1 SUB1        0.045
     68 H271       17.2449   -2.8002   12.1809 H         1 SUB1        0.056
     69 H281       20.7864   -4.4276   10.3622 H         1 SUB1        0.056
     70 H291       15.9339   -4.7272   11.3271 H         1 SUB1        0.060
     71 H301       19.4647   -6.3376    9.5193 H         1 SUB1        0.060
     72 H311       17.0444   -6.4774    9.9926 H         1 SUB1        0.056
     73 H331       21.4311    1.3729   12.6819 H         1 SUB1        0.045
     74 H332       20.2272    0.1849   13.3018 H         1 SUB1        0.045
     75 H341       19.7306    2.6918   14.3177 H         1 SUB1        0.071
     76 H371       17.0107    3.0276   12.9756 H         1 SUB1        0.031
     77 H372       17.4763    3.6786   14.5893 H         1 SUB1        0.031
     78 H381       19.2419    5.0164   13.5635 H         1 SUB1        0.031
     79 H391       16.7972    5.7516   13.6979 H         1 SUB1        0.027
     80 H392       17.8228    6.6136   12.4937 H         1 SUB1        0.027
     81 H401       15.8347    4.3714   11.9249 H         1 SUB1        0.026
     82 H402       15.6415    6.1194   11.5347 H         1 SUB1        0.026
     83 H411       16.3441    4.8623    9.5379 H         1 SUB1        0.026
     84 H412       17.6655    5.9674   10.0647 H         1 SUB1        0.026
     85 H421       17.4114    3.0299   10.8747 H         1 SUB1        0.027
     86 H422       18.4773    3.6505    9.5619 H         1 SUB1        0.027
     87 H431       19.6537    5.0668   11.1680 H         1 SUB1        0.032
     88 H441       20.8701    3.4113   12.3437 H         1 SUB1        0.043
     89 H442       20.3740    2.7309   10.7513 H         1 SUB1        0.043
     90 H451       19.4042    1.8003   16.0795 H         1 SUB1        0.186
     91 H471       18.8993   -0.2602   18.8321 H         1 SUB1        0.025
     92 H472       20.2253    0.3663   17.8040 H         1 SUB1        0.025
     93 H473       18.9303    1.4745   18.3872 H         1 SUB1        0.025
     94 H481       16.6320   -0.4546   17.9547 H         1 SUB1        0.025
     95 H482       16.7202    1.3031   17.6221 H         1 SUB1        0.025
     96 H483       16.2459    0.1567   16.3161 H         1 SUB1        0.025
     97 H491       18.3206   -1.9858   17.1576 H         1 SUB1        0.025
     98 H492       18.0742   -1.5199   15.4459 H         1 SUB1        0.025
     99 H493       19.7119   -1.4101   16.1879 H         1 SUB1        0.025
@<TRIPOS>BOND
     1   14   13 1  
     2   14   17 1  
     3   15   14 1  
     4   15   16 2  
     5   17   18 1  
     6   18   20 am 
     7   18   19 2  
     8    2    1 2  
     9    2    4 1  
    10   13    2 am 
    11    4    5 ar 
    12    5    6 ar 
    13    6    7 ar 
    14    7    8 ar 
    15    7   12 ar 
    16    8    9 ar 
    17    9   10 ar 
    18   11   10 ar 
    19   12   11 ar 
    20   21   22 1  
    21   21   23 1  
    22   23   24 1  
    23   23   25 1  
    24   24   15 am 
    25   25   26 1  
    26   26   27 ar 
    27   26   28 ar 
    28   27   29 ar 
    29   28   30 ar 
    30   29   31 ar 
    31   30   31 ar 
    32   33   32 1  
    33   32   34 1  
    34   32   44 1  
    35   33   21 1  
    36   34   35 1  
    37   34   37 1  
    38   35   36 2  
    39   35   45 am 
    40   37   38 1  
    41   38   39 1  
    42   38   43 1  
    43   39   40 1  
    44   40   41 1  
    45   41   42 1  
    46   42   43 1  
    47   43   44 1  
    48   45   46 1  
    49   46   47 1  
    50   46   48 1  
    51   46   49 1  
    52   12    3 ar 
    53    4    3 ar 
    54   13   59 1  
    55   14   50 1  
    56   17   51 1  
    57   17   52 1  
    58   20   53 1  
    59   20   54 1  
    60    5   55 1  
    61    6   56 1  
    62    8   57 1  
    63    9   58 1  
    64   10   60 1  
    65   11   61 1  
    66   21   62 1  
    67   22   63 1  
    68   23   64 1  
    69   24   65 1  
    70   25   66 1  
    71   25   67 1  
    72   27   68 1  
    73   28   69 1  
    74   29   70 1  
    75   30   71 1  
    76   31   72 1  
    77   33   73 1  
    78   33   74 1  
    79   34   75 1  
    80   37   76 1  
    81   37   77 1  
    82   38   78 1  
    83   39   79 1  
    84   39   80 1  
    85   40   81 1  
    86   40   82 1  
    87   41   83 1  
    88   41   84 1  
    89   42   85 1  
    90   42   86 1  
    91   43   87 1  
    92   44   88 1  
    93   44   89 1  
    94   45   90 1  
    95   47   91 1  
    96   47   92 1  
    97   47   93 1  
    98   48   94 1  
    99   48   95 1  
   100   48   96 1  
   101   49   97 1  
   102   49   98 1  
   103   49   99 1  
@<TRIPOS>SUBSTRUCTURE
     1 SUB1        1 GROUP

