1hxb_ligand
  -I-interpret- 

 99103  0  0  0  0  0  0  0  0999 V2000
   20.1680   -3.4210    6.0800 O   0  0  0  0  0
   19.0260   -3.5990    6.5160 C   0  0  0  0  0
   17.0310   -4.8170    6.8790 N   0  0  0  0  0
   18.3400   -4.8180    6.5140 C   0  0  0  0  0
   18.9700   -6.0340    6.2250 C   0  0  0  0  0
   18.2400   -7.2190    6.3330 C   0  0  0  0  0
   16.8980   -7.1660    6.7210 C   0  0  0  0  0
   16.1460   -8.3330    6.8450 C   0  0  0  0  0
   14.8060   -8.2410    7.2430 C   0  0  0  0  0
   14.2170   -7.0010    7.5160 C   0  0  0  0  0
   14.9660   -5.8350    7.3930 C   0  0  0  0  0
   16.2970   -5.9290    6.9950 C   0  0  0  0  0
   18.2790   -2.6270    7.0450 N   0  0  0  0  0
   18.7730   -1.2910    7.3000 C   0  0  0  0  0
   18.6260   -0.8980    8.7610 C   0  0  0  0  0
   17.7090   -0.1980    9.2080 O   0  0  0  0  0
   18.0410   -0.3040    6.4420 C   0  0  0  0  0
   18.4490   -0.5710    5.0140 C   0  0  0  0  0
   19.6160   -0.6910    4.6750 O   0  0  0  0  0
   17.5560   -0.7630    4.0770 N   0  0  0  0  0
   20.5870    0.0830   11.1880 C   0  0  0  0  0
   21.8770   -0.5100   11.1080 O   0  0  0  0  0
   19.5590   -1.0490   10.9830 C   0  0  0  0  0
   19.5670   -1.3870    9.5690 N   0  0  0  0  0
   19.8880   -2.3140   11.7920 C   0  0  0  0  0
   19.0890   -3.5050   11.3210 C   0  0  0  0  0
   17.7280   -3.5760   11.5980 C   0  0  0  0  0
   19.7250   -4.4940   10.5720 C   0  0  0  0  0
   16.9950   -4.6560   11.1170 C   0  0  0  0  0
   18.9830   -5.5600   10.1010 C   0  0  0  0  0
   17.6200   -5.6400   10.3700 C   0  0  0  0  0
   19.4210    1.9070   12.4190 N   0  0  0  0  0
   20.4640    0.8860   12.4880 C   0  0  0  0  0
   18.8880    2.2870   13.7380 C   0  0  0  0  0
   18.2420    1.1880   14.5710 C   0  0  0  0  0
   17.3660    0.4830   14.0690 O   0  0  0  0  0
   17.8450    3.3900   13.5940 C   0  0  0  0  0
   18.4400    4.6080   12.9310 C   0  0  0  0  0
   17.3550    5.6530   12.7550 C   0  0  0  0  0
   16.3630    5.2980   11.6560 C   0  0  0  0  0
   17.0720    5.0810   10.3330 C   0  0  0  0  0
   17.9910    3.8940   10.5180 C   0  0  0  0  0
   19.0660    4.2160   11.5430 C   0  0  0  0  0
   20.0220    3.0510   11.7430 C   0  0  0  0  0
   18.7210    1.1200   15.8140 N   0  0  0  0  0
   18.3340    0.1420   16.8130 C   0  0  0  0  0
   19.1540    0.4560   18.0370 C   0  0  0  0  0
   16.8870    0.3020   17.1980 C   0  0  0  0  0
   18.6330   -1.2900   16.3650 C   0  0  0  0  0
   19.8444   -1.2592    7.0530 H   0  0  0  0  0
   16.9541   -0.4385    6.5443 H   0  0  0  0  0
   18.3000    0.7246    6.7332 H   0  0  0  0  0
   16.5819   -0.7343    4.3012 H   0  0  0  0  0
   17.8477   -0.9385    3.1367 H   0  0  0  0  0
   20.0104   -6.0553    5.9215 H   0  0  0  0  0
   18.7097   -8.1720    6.1179 H   0  0  0  0  0
   16.5920   -9.2987    6.6363 H   0  0  0  0  0
   14.2157   -9.1449    7.3411 H   0  0  0  0  0
   17.3094   -2.8371    7.2818 H   0  0  0  0  0
   13.1786   -6.9492    7.8229 H   0  0  0  0  0
   14.5208   -4.8693    7.6035 H   0  0  0  0  0
   20.4666    0.8047   10.3667 H   0  0  0  0  0
   22.5400    0.1592   11.2300 H   0  0  0  0  0
   18.5617   -0.6989   11.2876 H   0  0  0  0  0
   20.2785   -1.9864    9.2024 H   0  0  0  0  0
   20.9567   -2.5487   11.6791 H   0  0  0  0  0
   19.6527   -2.1378   12.8520 H   0  0  0  0  0
   17.2449   -2.8002   12.1809 H   0  0  0  0  0
   20.7864   -4.4276   10.3622 H   0  0  0  0  0
   15.9339   -4.7272   11.3271 H   0  0  0  0  0
   19.4647   -6.3376    9.5193 H   0  0  0  0  0
   17.0444   -6.4774    9.9926 H   0  0  0  0  0
   21.4311    1.3729   12.6819 H   0  0  0  0  0
   20.2272    0.1849   13.3018 H   0  0  0  0  0
   19.7306    2.6918   14.3177 H   0  0  0  0  0
   17.0107    3.0276   12.9756 H   0  0  0  0  0
   17.4763    3.6786   14.5893 H   0  0  0  0  0
   19.2419    5.0164   13.5635 H   0  0  0  0  0
   16.7972    5.7516   13.6979 H   0  0  0  0  0
   17.8228    6.6136   12.4937 H   0  0  0  0  0
   15.8347    4.3714   11.9249 H   0  0  0  0  0
   15.6415    6.1194   11.5347 H   0  0  0  0  0
   16.3441    4.8623    9.5379 H   0  0  0  0  0
   17.6655    5.9674   10.0647 H   0  0  0  0  0
   17.4114    3.0299   10.8747 H   0  0  0  0  0
   18.4773    3.6505    9.5619 H   0  0  0  0  0
   19.6537    5.0668   11.1680 H   0  0  0  0  0
   20.8701    3.4113   12.3437 H   0  0  0  0  0
   20.3740    2.7309   10.7513 H   0  0  0  0  0
   19.4042    1.8003   16.0795 H   0  0  0  0  0
   18.8993   -0.2602   18.8321 H   0  0  0  0  0
   20.2253    0.3663   17.8040 H   0  0  0  0  0
   18.9303    1.4745   18.3872 H   0  0  0  0  0
   16.6320   -0.4546   17.9547 H   0  0  0  0  0
   16.7202    1.3031   17.6221 H   0  0  0  0  0
   16.2459    0.1567   16.3161 H   0  0  0  0  0
   18.3206   -1.9858   17.1576 H   0  0  0  0  0
   18.0742   -1.5199   15.4459 H   0  0  0  0  0
   19.7119   -1.4101   16.1879 H   0  0  0  0  0
 14 13  1  0  0  0
 14 17  1  0  0  0
 15 14  1  0  0  0
 15 16  2  0  0  0
 17 18  1  0  0  0
 18 20  1  0  0  0
 18 19  2  0  0  0
  2  1  2  0  0  0
  2  4  1  0  0  0
 13  2  1  0  0  0
  4  5  4  0  0  0
  5  6  4  0  0  0
  6  7  4  0  0  0
  7  8  4  0  0  0
  7 12  4  0  0  0
  8  9  4  0  0  0
  9 10  4  0  0  0
 11 10  4  0  0  0
 12 11  4  0  0  0
 21 22  1  0  0  0
 21 23  1  0  0  0
 23 24  1  0  0  0
 23 25  1  0  0  0
 24 15  1  0  0  0
 25 26  1  0  0  0
 26 27  4  0  0  0
 26 28  4  0  0  0
 27 29  4  0  0  0
 28 30  4  0  0  0
 29 31  4  0  0  0
 30 31  4  0  0  0
 33 32  1  0  0  0
 32 34  1  0  0  0
 32 44  1  0  0  0
 33 21  1  0  0  0
 34 35  1  0  0  0
 34 37  1  0  0  0
 35 36  2  0  0  0
 35 45  1  0  0  0
 37 38  1  0  0  0
 38 39  1  0  0  0
 38 43  1  0  0  0
 39 40  1  0  0  0
 40 41  1  0  0  0
 41 42  1  0  0  0
 42 43  1  0  0  0
 43 44  1  0  0  0
 45 46  1  0  0  0
 46 47  1  0  0  0
 46 48  1  0  0  0
 46 49  1  0  0  0
 12  3  4  0  0  0
  4  3  4  0  0  0
 13 59  1  0  0  0
 14 50  1  0  0  0
 17 51  1  0  0  0
 17 52  1  0  0  0
 20 53  1  0  0  0
 20 54  1  0  0  0
  5 55  1  0  0  0
  6 56  1  0  0  0
  8 57  1  0  0  0
  9 58  1  0  0  0
 10 60  1  0  0  0
 11 61  1  0  0  0
 21 62  1  0  0  0
 22 63  1  0  0  0
 23 64  1  0  0  0
 24 65  1  0  0  0
 25 66  1  0  0  0
 25 67  1  0  0  0
 27 68  1  0  0  0
 28 69  1  0  0  0
 29 70  1  0  0  0
 30 71  1  0  0  0
 31 72  1  0  0  0
 33 73  1  0  0  0
 33 74  1  0  0  0
 34 75  1  0  0  0
 37 76  1  0  0  0
 37 77  1  0  0  0
 38 78  1  0  0  0
 39 79  1  0  0  0
 39 80  1  0  0  0
 40 81  1  0  0  0
 40 82  1  0  0  0
 41 83  1  0  0  0
 41 84  1  0  0  0
 42 85  1  0  0  0
 42 86  1  0  0  0
 43 87  1  0  0  0
 44 88  1  0  0  0
 44 89  1  0  0  0
 45 90  1  0  0  0
 47 91  1  0  0  0
 47 92  1  0  0  0
 47 93  1  0  0  0
 48 94  1  0  0  0
 48 95  1  0  0  0
 48 96  1  0  0  0
 49 97  1  0  0  0
 49 98  1  0  0  0
 49 99  1  0  0  0
M  END
$$$$
