### 
### Created by X-TOOL on Tue Oct 25 00:59:45 2005
### 

@<TRIPOS>MOLECULE
1xk9_ligand
   39    41     1     0     0
SMALL
GAST_HUCK


@<TRIPOS>ATOM
      1 CAA        31.8880    7.6030   18.1380 C.3       1 SUB1       -0.011
      2 N          32.8510    8.7170   18.0680 N.3       1 SUB1       -0.291
      3 CAB        32.8860    9.4620   19.3360 C.3       1 SUB1       -0.011
      4 CA         32.5250    9.6490   16.9080 C.3       1 SUB1        0.094
      5 C          31.0220   10.0210   16.6150 C.2       1 SUB1        0.214
      6 O          30.8090   10.7810   15.6490 O.2       1 SUB1       -0.385
      7 NAM        29.8710    9.5620   17.3270 N.am      1 SUB1       -0.241
      8 CAP        29.3510    9.3770   18.6130 C.ar      1 SUB1        0.054
      9 CAK        28.1420    8.5170   18.6140 C.ar      1 SUB1       -0.043
     10 CAU        27.4000    8.1560   19.8490 C.ar      1 SUB1       -0.002
     11 CAT        26.1680    7.3120   19.9000 C.ar      1 SUB1       -0.008
     12 CAI        25.5700    6.7070   18.7210 C.ar      1 SUB1       -0.053
     13 CAF        24.3690    5.8760   18.8090 C.ar      1 SUB1       -0.060
     14 CAE        23.7700    5.6120   20.0600 C.ar      1 SUB1       -0.059
     15 CAH        24.3270    6.1790   21.2490 C.ar      1 SUB1       -0.044
     16 CAS        25.5330    7.0050   21.1970 C.ar      1 SUB1        0.057
     17 CAQ        26.0740    7.5700   22.3840 C.2       1 SUB1        0.224
     18 OAD        25.5960    7.3700   23.5060 O.2       1 SUB1       -0.387
     19 NAN        27.2650    8.3890   22.3100 N.am      1 SUB1       -0.237
     20 CAR        27.9220    8.6930   21.0770 C.ar      1 SUB1        0.068
     21 CAJ        29.1120    9.5360   21.1150 C.ar      1 SUB1       -0.047
     22 CAG        29.8160    9.8620   19.8810 C.ar      1 SUB1       -0.050
     23 H11        32.1466    6.9473   18.9825 H         1 SUB1        0.039
     24 H12        31.9252    7.0268   17.2017 H         1 SUB1        0.039
     25 H13        30.8737    8.0036   18.2820 H         1 SUB1        0.039
     26 H31        33.6106   10.2858   19.2573 H         1 SUB1        0.039
     27 H32        33.1863    8.7861   20.1502 H         1 SUB1        0.039
     28 H33        31.8873    9.8712   19.5486 H         1 SUB1        0.039
     29 H41        32.9222    9.1779   15.9968 H         1 SUB1        0.067
     30 H42        33.0582   10.5927   17.0952 H         1 SUB1        0.067
     31 H71        29.1859    9.2635   16.6625 H         1 SUB1        0.221
     32 H91        27.7823    8.1330   17.6662 H         1 SUB1        0.047
     33 H121       26.0256    6.8759   17.7520 H         1 SUB1        0.061
     34 H131       23.9357    5.4598   17.9067 H         1 SUB1        0.064
     35 H141       22.8904    4.9813   20.1191 H         1 SUB1        0.061
     36 H151       23.8479    5.9937   22.2036 H         1 SUB1        0.066
     37 H191       27.6449    8.7583   23.1581 H         1 SUB1        0.228
     38 H211       29.4731    9.9204   22.0620 H         1 SUB1        0.049
     39 H221       30.7051   10.4808   19.9218 H         1 SUB1        0.049
@<TRIPOS>BOND
     1    1    2 1  
     2    2    3 1  
     3    2    4 1  
     4    4    5 1  
     5    5    6 2  
     6    5    7 am 
     7    7    8 1  
     8    8    9 ar 
     9    8   22 ar 
    10    9   10 ar 
    11   10   11 1  
    12   10   20 ar 
    13   11   12 ar 
    14   11   16 ar 
    15   12   13 ar 
    16   13   14 ar 
    17   14   15 ar 
    18   15   16 ar 
    19   16   17 1  
    20   17   18 2  
    21   17   19 am 
    22   19   20 1  
    23   20   21 ar 
    24   21   22 ar 
    25    1   23 1  
    26    1   24 1  
    27    1   25 1  
    28    3   26 1  
    29    3   27 1  
    30    3   28 1  
    31    4   29 1  
    32    4   30 1  
    33    7   31 1  
    34    9   32 1  
    35   12   33 1  
    36   13   34 1  
    37   14   35 1  
    38   15   36 1  
    39   19   37 1  
    40   21   38 1  
    41   22   39 1  
@<TRIPOS>SUBSTRUCTURE
     1 SUB1        1 GROUP

