2aqu_ligand
  -I-interpret- 

103105  0  0  0  0  0  0  0  0999 V2000
  -45.0210   66.8550   34.7460 C   0  0  0  0  0
  -43.8670   66.7520   33.9760 O   0  0  0  0  0
  -43.1830   67.9500   33.6470 C   0  0  0  0  0
  -43.6320   68.9740   34.0370 O   0  0  0  0  0
  -41.8900   67.7960   32.8730 N   0  0  0  0  0
  -41.4390   69.1780   32.8030 C   0  0  0  0  0
  -40.1190   69.3160   33.4190 C   0  0  0  0  0
  -39.3070   68.0220   33.5070 C   0  0  0  0  0
  -40.4890   69.7990   34.7420 C   0  0  0  0  0
  -39.2710   70.4060   32.8270 C   0  0  0  0  0
  -41.0630   68.9260   31.1660 C   0  0  0  0  0
  -40.2980   68.1220   30.8040 O   0  0  0  0  0
  -41.7600   69.6930   30.3810 N   0  0  0  0  0
  -41.7920   69.7640   28.9370 C   0  0  0  0  0
  -43.1110   69.1810   28.5780 C   0  0  0  0  0
  -43.4340   67.8420   29.1750 C   0  0  0  0  0
  -42.9210   66.6620   28.7080 C   0  0  0  0  0
  -43.2470   65.4620   29.3210 C   0  0  0  0  0
  -44.1050   65.4320   30.4300 C   0  0  0  0  0
  -44.6220   66.5990   30.8970 C   0  0  0  0  0
  -44.2820   67.7960   30.2760 C   0  0  0  0  0
  -41.7090   71.1310   28.3130 C   0  0  0  0  0
  -42.5190   72.0820   28.8920 O   0  0  0  0  0
  -40.5340   71.9140   28.4970 C   0  0  0  0  0
  -39.3690   71.4510   27.7980 N   0  0  0  0  0
  -39.3260   70.9700   26.4690 N   0  0  0  0  0
  -39.1420   69.8930   25.7680 C   0  0  0  0  0
  -38.9260   68.8230   26.1450 O   0  0  0  0  0
  -39.1960   70.2620   24.3010 C   0  0  0  0  0
  -40.0060   69.3460   23.3680 C   0  0  0  0  0
  -40.1780   70.0150   22.0300 C   0  0  0  0  0
  -41.3840   69.1140   23.9010 C   0  0  0  0  0
  -39.3070   68.0320   23.1910 C   0  0  0  0  0
  -37.8290   70.4700   23.8110 N   0  0  0  0  0
  -37.3500   71.4990   23.1780 C   0  0  0  0  0
  -37.9470   72.4590   22.8800 O   0  0  0  0  0
  -35.9760   71.4210   22.8170 O   0  0  0  0  0
  -35.3470   72.5670   22.3190 C   0  0  0  0  0
  -38.0910   71.6970   28.4680 C   0  0  0  0  0
  -36.8610   71.4480   27.6420 C   0  0  0  0  0
  -36.2500   72.3820   26.7990 C   0  0  0  0  0
  -35.0870   72.0460   26.0900 C   0  0  0  0  0
  -36.3230   70.1990   27.7600 C   0  0  0  0  0
  -35.2010   69.8820   27.0650 C   0  0  0  0  0
  -34.5660   70.7800   26.2330 C   0  0  0  0  0
  -33.4380   70.2880   25.6040 C   0  0  0  0  0
  -33.0370   68.9280   25.8390 C   0  0  0  0  0
  -31.9230   68.3400   25.2540 C   0  0  0  0  0
  -31.1850   69.0980   24.4140 C   0  0  0  0  0
  -31.5720   70.4110   24.1770 C   0  0  0  0  0
  -32.6590   70.9930   24.7430 N   0  0  0  0  0
  -44.7779   67.3176   35.7025 H   0  0  0  0  0
  -45.7535   67.4676   34.2204 H   0  0  0  0  0
  -45.4326   65.8602   34.9163 H   0  0  0  0  0
  -41.4536   66.9522   32.5015 H   0  0  0  0  0
  -42.0800   69.9687   33.1928 H   0  0  0  0  0
  -38.3964   68.2041   34.0777 H   0  0  0  0  0
  -39.9012   67.2548   34.0034 H   0  0  0  0  0
  -39.0471   67.6886   32.5023 H   0  0  0  0  0
  -41.0915   69.0443   35.2475 H   0  0  0  0  0
  -39.5867   69.9937   35.3218 H   0  0  0  0  0
  -41.0647   70.7193   34.6435 H   0  0  0  0  0
  -38.3977   70.5687   33.4586 H   0  0  0  0  0
  -38.9489   70.1119   31.8281 H   0  0  0  0  0
  -39.8535   71.3253   32.7664 H   0  0  0  0  0
  -42.3811   70.3465   30.8580 H   0  0  0  0  0
  -40.9051   69.2529   28.5623 H   0  0  0  0  0
  -43.0932   69.0344   27.4980 H   0  0  0  0  0
  -43.8617   69.8722   28.9612 H   0  0  0  0  0
  -42.2514   66.6658   27.8480 H   0  0  0  0  0
  -42.8315   64.5306   28.9364 H   0  0  0  0  0
  -44.3538   64.4859   30.9107 H   0  0  0  0  0
  -45.2981   66.5967   31.7520 H   0  0  0  0  0
  -44.6933   68.7276   30.6647 H   0  0  0  0  0
  -41.9002   70.7814   27.2984 H   0  0  0  0  0
  -42.4046   72.9189   28.4358 H   0  0  0  0  0
  -40.2959   71.8724   29.5599 H   0  0  0  0  0
  -40.7573   72.9066   28.1058 H   0  0  0  0  0
  -39.5029   71.7479   25.8335 H   0  0  0  0  0
  -39.7780   71.1828   24.2633 H   0  0  0  0  0
  -40.7076   70.9585   22.1624 H   0  0  0  0  0
  -39.1983   70.2051   21.5917 H   0  0  0  0  0
  -40.7522   69.3639   21.3708 H   0  0  0  0  0
  -41.3183   68.6423   24.8815 H   0  0  0  0  0
  -41.9034   70.0682   23.9895 H   0  0  0  0  0
  -41.9311   68.4630   23.2191 H   0  0  0  0  0
  -38.3220   68.2016   22.7560 H   0  0  0  0  0
  -39.1986   67.5460   24.1606 H   0  0  0  0  0
  -39.8938   67.3962   22.5281 H   0  0  0  0  0
  -37.1713   69.7111   23.9897 H   0  0  0  0  0
  -35.8543   72.8928   21.4110 H   0  0  0  0  0
  -35.3929   73.3590   23.0665 H   0  0  0  0  0
  -34.3054   72.3390   22.0929 H   0  0  0  0  0
  -38.0444   71.0023   29.3066 H   0  0  0  0  0
  -38.0783   72.7556   28.7276 H   0  0  0  0  0
  -36.6804   73.3777   26.6922 H   0  0  0  0  0
  -34.6048   72.7742   25.4378 H   0  0  0  0  0
  -36.7922   69.4598   28.4092 H   0  0  0  0  0
  -34.7860   68.8794   27.1684 H   0  0  0  0  0
  -33.6417   68.3235   26.5150 H   0  0  0  0  0
  -31.6541   67.3050   25.4649 H   0  0  0  0  0
  -30.2997   68.6859   23.9297 H   0  0  0  0  0
  -30.9665   71.0090   23.4960 H   0  0  0  0  0
  1  2  1  0  0  0
  2  3  1  0  0  0
  3  4  2  0  0  0
  3  5  1  0  0  0
  5  6  1  0  0  0
  6  7  1  0  0  0
  6 11  1  0  0  0
  7  8  1  0  0  0
  7  9  1  0  0  0
  7 10  1  0  0  0
 11 12  2  0  0  0
 11 13  1  0  0  0
 13 14  1  0  0  0
 14 15  1  0  0  0
 14 22  1  0  0  0
 15 16  1  0  0  0
 16 17  4  0  0  0
 16 21  4  0  0  0
 17 18  4  0  0  0
 18 19  4  0  0  0
 19 20  4  0  0  0
 20 21  4  0  0  0
 22 23  1  0  0  0
 22 24  1  0  0  0
 24 25  1  0  0  0
 25 26  1  0  0  0
 25 39  1  0  0  0
 26 27  1  0  0  0
 27 28  2  0  0  0
 27 29  1  0  0  0
 29 30  1  0  0  0
 29 34  1  0  0  0
 30 31  1  0  0  0
 30 32  1  0  0  0
 30 33  1  0  0  0
 34 35  1  0  0  0
 35 36  2  0  0  0
 35 37  1  0  0  0
 37 38  1  0  0  0
 39 40  1  0  0  0
 40 41  4  0  0  0
 40 43  4  0  0  0
 41 42  4  0  0  0
 42 45  4  0  0  0
 43 44  4  0  0  0
 44 45  4  0  0  0
 45 46  1  0  0  0
 46 47  4  0  0  0
 46 51  4  0  0  0
 47 48  4  0  0  0
 48 49  4  0  0  0
 49 50  4  0  0  0
 50 51  4  0  0  0
  1 52  1  0  0  0
  1 53  1  0  0  0
  1 54  1  0  0  0
  5 55  1  0  0  0
  6 56  1  0  0  0
  8 57  1  0  0  0
  8 58  1  0  0  0
  8 59  1  0  0  0
  9 60  1  0  0  0
  9 61  1  0  0  0
  9 62  1  0  0  0
 10 63  1  0  0  0
 10 64  1  0  0  0
 10 65  1  0  0  0
 13 66  1  0  0  0
 14 67  1  0  0  0
 15 68  1  0  0  0
 15 69  1  0  0  0
 17 70  1  0  0  0
 18 71  1  0  0  0
 19 72  1  0  0  0
 20 73  1  0  0  0
 21 74  1  0  0  0
 22 75  1  0  0  0
 23 76  1  0  0  0
 24 77  1  0  0  0
 24 78  1  0  0  0
 26 79  1  0  0  0
 29 80  1  0  0  0
 31 81  1  0  0  0
 31 82  1  0  0  0
 31 83  1  0  0  0
 32 84  1  0  0  0
 32 85  1  0  0  0
 32 86  1  0  0  0
 33 87  1  0  0  0
 33 88  1  0  0  0
 33 89  1  0  0  0
 34 90  1  0  0  0
 38 91  1  0  0  0
 38 92  1  0  0  0
 38 93  1  0  0  0
 39 94  1  0  0  0
 39 95  1  0  0  0
 41 96  1  0  0  0
 42 97  1  0  0  0
 43 98  1  0  0  0
 44 99  1  0  0  0
 47100  1  0  0  0
 48101  1  0  0  0
 49102  1  0  0  0
 50103  1  0  0  0
M  END
$$$$
