### 
### Created by X-TOOL on Sun Jun  3 11:16:45 2007
### 

@<TRIPOS>MOLECULE
2aqu_ligand
  103   105     1     0     0
SMALL
GAST_HUCK


@<TRIPOS>ATOM
      1 CAA       -45.0210   66.8550   34.7460 C.3       1 SUB1        0.066
      2 OBI       -43.8670   66.7520   33.9760 O.3       1 SUB1       -0.267
      3 CBK       -43.1830   67.9500   33.6470 C.2       1 SUB1        0.322
      4 OAI       -43.6320   68.9740   34.0370 O.2       1 SUB1       -0.377
      5 N         -41.8900   67.7960   32.8730 N.am      1 SUB1       -0.241
      6 CA        -41.4390   69.1780   32.8030 C.3       1 SUB1        0.138
      7 CB        -40.1190   69.3160   33.4190 C.3       1 SUB1        0.002
      8 CAE       -39.3070   68.0220   33.5070 C.3       1 SUB1       -0.056
      9 CG2       -40.4890   69.7990   34.7420 C.3       1 SUB1       -0.056
     10 CG1       -39.2710   70.4060   32.8270 C.3       1 SUB1       -0.056
     11 C         -41.0630   68.9260   31.1660 C.2       1 SUB1        0.203
     12 O         -40.2980   68.1220   30.8040 O.2       1 SUB1       -0.394
     13 NBG       -41.7600   69.6930   30.3810 N.am      1 SUB1       -0.278
     14 CBT       -41.7920   69.7640   28.9370 C.3       1 SUB1        0.079
     15 CBA       -43.1110   69.1810   28.5780 C.3       1 SUB1        0.006
     16 CBO       -43.4340   67.8420   29.1750 C.ar      1 SUB1       -0.041
     17 CAT       -42.9210   66.6620   28.7080 C.ar      1 SUB1       -0.060
     18 CAP       -43.2470   65.4620   29.3210 C.ar      1 SUB1       -0.069
     19 CAN       -44.1050   65.4320   30.4300 C.ar      1 SUB1       -0.069
     20 CAQ       -44.6220   66.5990   30.8970 C.ar      1 SUB1       -0.069
     21 CAU       -44.2820   67.7960   30.2760 C.ar      1 SUB1       -0.060
     22 CBS       -41.7090   71.1310   28.3130 C.3       1 SUB1        0.095
     23 OAM       -42.5190   72.0820   28.8920 O.3       1 SUB1       -0.388
     24 CBC       -40.5340   71.9140   28.4970 C.3       1 SUB1        0.052
     25 NBW       -39.3690   71.4510   27.7980 N.3       1 SUB1       -0.193
     26 NBH       -39.3260   70.9700   26.4690 N.am      1 SUB1       -0.213
     27 CBN       -39.1420   69.8930   25.7680 C.2       1 SUB1        0.217
     28 OAL       -38.9260   68.8230   26.1450 O.2       1 SUB1       -0.393
     29 CBV       -39.1960   70.2620   24.3010 C.3       1 SUB1        0.139
     30 CBY       -40.0060   69.3460   23.3680 C.3       1 SUB1        0.003
     31 CAH       -40.1780   70.0150   22.0300 C.3       1 SUB1       -0.056
     32 CAF       -41.3840   69.1140   23.9010 C.3       1 SUB1       -0.056
     33 CAG       -39.3070   68.0320   23.1910 C.3       1 SUB1       -0.056
     34 NBF       -37.8290   70.4700   23.8110 N.am      1 SUB1       -0.241
     35 CBL       -37.3500   71.4990   23.1780 C.2       1 SUB1        0.322
     36 OAJ       -37.9470   72.4590   22.8800 O.2       1 SUB1       -0.377
     37 OBJ       -35.9760   71.4210   22.8170 O.3       1 SUB1       -0.267
     38 CAB       -35.3470   72.5670   22.3190 C.3       1 SUB1        0.066
     39 CBB       -38.0910   71.6970   28.4680 C.3       1 SUB1        0.056
     40 CBP       -36.8610   71.4480   27.6420 C.ar      1 SUB1       -0.024
     41 CAW       -36.2500   72.3820   26.7990 C.ar      1 SUB1       -0.056
     42 CAY       -35.0870   72.0460   26.0900 C.ar      1 SUB1       -0.057
     43 CAX       -36.3230   70.1990   27.7600 C.ar      1 SUB1       -0.056
     44 CAZ       -35.2010   69.8820   27.0650 C.ar      1 SUB1       -0.057
     45 CBQ       -34.5660   70.7800   26.2330 C.ar      1 SUB1       -0.007
     46 CBR       -33.4380   70.2880   25.6040 C.ar      1 SUB1        0.048
     47 CAV       -33.0370   68.9280   25.8390 C.ar      1 SUB1       -0.029
     48 CAR       -31.9230   68.3400   25.2540 C.ar      1 SUB1       -0.043
     49 CAO       -31.1850   69.0980   24.4140 C.ar      1 SUB1       -0.036
     50 CAS       -31.5720   70.4110   24.1770 C.ar      1 SUB1        0.009
     51 NBD       -32.6590   70.9930   24.7430 N.ar      1 SUB1       -0.294
     52 H         -44.7779   67.3176   35.7025 H         1 SUB1        0.058
     53 H         -45.7535   67.4676   34.2204 H         1 SUB1        0.058
     54 H         -45.4326   65.8602   34.9163 H         1 SUB1        0.058
     55 H         -41.4536   66.9522   32.5015 H         1 SUB1        0.190
     56 H         -42.0800   69.9687   33.1928 H         1 SUB1        0.080
     57 H         -38.3964   68.2041   34.0777 H         1 SUB1        0.024
     58 H         -39.9012   67.2548   34.0034 H         1 SUB1        0.024
     59 H         -39.0471   67.6886   32.5023 H         1 SUB1        0.024
     60 H         -41.0915   69.0443   35.2475 H         1 SUB1        0.024
     61 H         -39.5867   69.9937   35.3218 H         1 SUB1        0.024
     62 H         -41.0647   70.7193   34.6435 H         1 SUB1        0.024
     63 H         -38.3977   70.5687   33.4586 H         1 SUB1        0.024
     64 H         -38.9489   70.1119   31.8281 H         1 SUB1        0.024
     65 H         -39.8535   71.3253   32.7664 H         1 SUB1        0.024
     66 H         -42.3811   70.3465   30.8580 H         1 SUB1        0.186
     67 H         -40.9051   69.2529   28.5623 H         1 SUB1        0.060
     68 H         -43.0932   69.0344   27.4980 H         1 SUB1        0.045
     69 H         -43.8617   69.8722   28.9612 H         1 SUB1        0.045
     70 H         -42.2514   66.6658   27.8480 H         1 SUB1        0.056
     71 H         -42.8315   64.5306   28.9364 H         1 SUB1        0.060
     72 H         -44.3538   64.4859   30.9107 H         1 SUB1        0.056
     73 H         -45.2981   66.5967   31.7520 H         1 SUB1        0.060
     74 H         -44.6933   68.7276   30.6647 H         1 SUB1        0.056
     75 H         -41.9002   70.7814   27.2984 H         1 SUB1        0.063
     76 H         -42.4046   72.9189   28.4358 H         1 SUB1        0.210
     77 H         -40.2959   71.8724   29.5599 H         1 SUB1        0.048
     78 H         -40.7573   72.9066   28.1058 H         1 SUB1        0.048
     79 H         -39.5029   71.7479   25.8335 H         1 SUB1        0.207
     80 H         -39.7780   71.1828   24.2633 H         1 SUB1        0.080
     81 H         -40.7076   70.9585   22.1624 H         1 SUB1        0.024
     82 H         -39.1983   70.2051   21.5917 H         1 SUB1        0.024
     83 H         -40.7522   69.3639   21.3708 H         1 SUB1        0.024
     84 H         -41.3183   68.6423   24.8815 H         1 SUB1        0.024
     85 H         -41.9034   70.0682   23.9895 H         1 SUB1        0.024
     86 H         -41.9311   68.4630   23.2191 H         1 SUB1        0.024
     87 H         -38.3220   68.2016   22.7560 H         1 SUB1        0.024
     88 H         -39.1986   67.5460   24.1606 H         1 SUB1        0.024
     89 H         -39.8938   67.3962   22.5281 H         1 SUB1        0.024
     90 H         -37.1713   69.7111   23.9897 H         1 SUB1        0.190
     91 H         -35.8543   72.8928   21.4110 H         1 SUB1        0.058
     92 H         -35.3929   73.3590   23.0665 H         1 SUB1        0.058
     93 H         -34.3054   72.3390   22.0929 H         1 SUB1        0.058
     94 H         -38.0444   71.0023   29.3066 H         1 SUB1        0.062
     95 H         -38.0783   72.7556   28.7276 H         1 SUB1        0.062
     96 H         -36.6804   73.3777   26.6922 H         1 SUB1        0.056
     97 H         -34.6048   72.7742   25.4378 H         1 SUB1        0.062
     98 H         -36.7922   69.4598   28.4092 H         1 SUB1        0.056
     99 H         -34.7860   68.8794   27.1684 H         1 SUB1        0.062
    100 H         -33.6417   68.3235   26.5150 H         1 SUB1        0.071
    101 H         -31.6541   67.3050   25.4649 H         1 SUB1        0.073
    102 H         -30.2997   68.6859   23.9297 H         1 SUB1        0.070
    103 H         -30.9665   71.0090   23.4960 H         1 SUB1        0.082
@<TRIPOS>BOND
     1    1    2 1  
     2    2    3 1  
     3    3    4 2  
     4    3    5 am 
     5    5    6 1  
     6    6    7 1  
     7    6   11 1  
     8    7    8 1  
     9    7    9 1  
    10    7   10 1  
    11   11   12 2  
    12   11   13 am 
    13   13   14 1  
    14   14   15 1  
    15   14   22 1  
    16   15   16 1  
    17   16   17 ar 
    18   16   21 ar 
    19   17   18 ar 
    20   18   19 ar 
    21   19   20 ar 
    22   20   21 ar 
    23   22   23 1  
    24   22   24 1  
    25   24   25 1  
    26   25   26 1  
    27   25   39 1  
    28   26   27 am 
    29   27   28 2  
    30   27   29 1  
    31   29   30 1  
    32   29   34 1  
    33   30   31 1  
    34   30   32 1  
    35   30   33 1  
    36   34   35 am 
    37   35   36 2  
    38   35   37 1  
    39   37   38 1  
    40   39   40 1  
    41   40   41 ar 
    42   40   43 ar 
    43   41   42 ar 
    44   42   45 ar 
    45   43   44 ar 
    46   44   45 ar 
    47   45   46 1  
    48   46   47 ar 
    49   46   51 ar 
    50   47   48 ar 
    51   48   49 ar 
    52   49   50 ar 
    53   50   51 ar 
    54    1   52 1  
    55    1   53 1  
    56    1   54 1  
    57    5   55 1  
    58    6   56 1  
    59    8   57 1  
    60    8   58 1  
    61    8   59 1  
    62    9   60 1  
    63    9   61 1  
    64    9   62 1  
    65   10   63 1  
    66   10   64 1  
    67   10   65 1  
    68   13   66 1  
    69   14   67 1  
    70   15   68 1  
    71   15   69 1  
    72   17   70 1  
    73   18   71 1  
    74   19   72 1  
    75   20   73 1  
    76   21   74 1  
    77   22   75 1  
    78   23   76 1  
    79   24   77 1  
    80   24   78 1  
    81   26   79 1  
    82   29   80 1  
    83   31   81 1  
    84   31   82 1  
    85   31   83 1  
    86   32   84 1  
    87   32   85 1  
    88   32   86 1  
    89   33   87 1  
    90   33   88 1  
    91   33   89 1  
    92   34   90 1  
    93   38   91 1  
    94   38   92 1  
    95   38   93 1  
    96   39   94 1  
    97   39   95 1  
    98   41   96 1  
    99   42   97 1  
   100   43   98 1  
   101   44   99 1  
   102   47  100 1  
   103   48  101 1  
   104   49  102 1  
   105   50  103 1  
@<TRIPOS>SUBSTRUCTURE
     1 SUB1        1 GROUP

