1tnl_ligand
  -I-interpret- 

 22 23  0  0  0  0  0  0  0  0999 V2000
   31.2151   15.2425   15.1767 H   0  0  0  0  0
   28.0588   14.7427   15.1460 H   0  0  0  0  0
   28.7638   17.2347   14.7204 H   0  0  0  0  0
   29.7207   17.1996   16.2402 H   0  0  0  0  0
   28.2799   16.4715   17.9061 H   0  0  0  0  0
   28.3870   15.5608   20.2056 H   0  0  0  0  0
   29.3034   13.2973   20.5851 H   0  0  0  0  0
   30.1459   11.9481   18.6953 H   0  0  0  0  0
   30.0419   12.8560   16.3931 H   0  0  0  0  0
   30.1900   15.4610   14.8430 C   0  0  0  0  0
   28.9490   15.1840   15.6180 C   0  0  0  0  0
   29.3470   16.5960   15.4000 C   0  0  0  0  0
   29.1430   14.7060   17.0310 C   0  0  0  0  0
   28.6820   15.4810   18.0860 C   0  0  0  0  0
   28.7430   14.9720   19.3680 C   0  0  0  0  0
   29.2640   13.6990   19.5790 C   0  0  0  0  0
   29.7350   12.9350   18.5160 C   0  0  0  0  0
   29.6770   13.4390   17.2310 C   0  0  0  0  0
   29.9220   15.1630   13.4350 N   0  3  0  0  0
   30.6720   15.6490   12.9020 H   0  0  0  0  0
   29.0190   15.5550   13.1220 H   0  0  0  0  0
   30.0480   14.1410   13.2820 H   0  0  0  0  0
 10  1  1  0  0  0
 11  2  1  0  0  0
 12  3  1  0  0  0
 12  4  1  0  0  0
 14  5  1  0  0  0
 15  6  1  0  0  0
 16  7  1  0  0  0
 17  8  1  0  0  0
 18  9  1  0  0  0
 11 10  1  0  0  0
 12 10  1  0  0  0
 10 19  1  0  0  0
 11 12  1  0  0  0
 13 11  1  0  0  0
 14 13  4  0  0  0
 13 18  4  0  0  0
 15 14  4  0  0  0
 16 15  4  0  0  0
 16 17  4  0  0  0
 17 18  4  0  0  0
 19 20  1  0  0  0
 19 21  1  0  0  0
 19 22  1  0  0  0
M  END
$$$$
