### 
### Created by X-TOOL on Mon Oct 24 22:55:50 2005
### 

@<TRIPOS>MOLECULE
1tnl_ligand
   22    23     1     0     0
SMALL
GAST_HUCK


@<TRIPOS>ATOM
      1 H101       31.2151   15.2425   15.1767 H         1 SUB1        0.088
      2 H111       28.0588   14.7427   15.1460 H         1 SUB1        0.052
      3 H121       28.7638   17.2347   14.7204 H         1 SUB1        0.035
      4 H122       29.7207   17.1996   16.2402 H         1 SUB1        0.035
      5 H141       28.2799   16.4715   17.9061 H         1 SUB1        0.056
      6 H151       28.3870   15.5608   20.2056 H         1 SUB1        0.060
      7 H161       29.3034   13.2973   20.5851 H         1 SUB1        0.056
      8 H171       30.1459   11.9481   18.6953 H         1 SUB1        0.060
      9 H181       30.0419   12.8560   16.3931 H         1 SUB1        0.056
     10 C1         30.1900   15.4610   14.8430 C.3       1 SUB1       -0.009
     11 C2         28.9490   15.1840   15.6180 C.3       1 SUB1        0.041
     12 C3         29.3470   16.5960   15.4000 C.3       1 SUB1        0.010
     13 C1'        29.1430   14.7060   17.0310 C.ar      1 SUB1       -0.034
     14 C2'        28.6820   15.4810   18.0860 C.ar      1 SUB1       -0.060
     15 C3'        28.7430   14.9720   19.3680 C.ar      1 SUB1       -0.069
     16 C4'        29.2640   13.6990   19.5790 C.ar      1 SUB1       -0.069
     17 C5'        29.7350   12.9350   18.5160 C.ar      1 SUB1       -0.069
     18 C6'        29.6770   13.4390   17.2310 C.ar      1 SUB1       -0.060
     19 N          29.9220   15.1630   13.4350 N.4       1 SUB1        0.222
     20 H191       30.6720   15.6490   12.9020 H         1 SUB1        0.200
     21 H192       29.0190   15.5550   13.1220 H         1 SUB1        0.200
     22 H193       30.0480   14.1410   13.2820 H         1 SUB1        0.200
@<TRIPOS>BOND
     1   10    1 1  
     2   11    2 1  
     3   12    3 1  
     4   12    4 1  
     5   14    5 1  
     6   15    6 1  
     7   16    7 1  
     8   17    8 1  
     9   18    9 1  
    10   11   10 1  
    11   12   10 1  
    12   10   19 1  
    13   11   12 1  
    14   13   11 1  
    15   14   13 ar 
    16   13   18 ar 
    17   15   14 ar 
    18   16   15 ar 
    19   16   17 ar 
    20   17   18 ar 
    21   19   20 1  
    22   19   21 1  
    23   19   22 1  
@<TRIPOS>SUBSTRUCTURE
     1 SUB1        1 GROUP

