### 
### Created by X-TOOL on Mon Oct 24 23:51:19 2005
### 

@<TRIPOS>MOLECULE
1bzy_ligand
   39    41     1     0     0
SMALL
GAST_HUCK


@<TRIPOS>ATOM
      1 P          12.3300   82.9070   41.2670 P.3       1 SUB1        0.205
      2 C2          4.9500   84.0600   46.5720 C.2       1 SUB1        0.221
      3 O1P        13.4450   82.9870   42.2380 O.co2     1 SUB1       -0.535
      4 O2P        12.6420   83.4750   39.9510 O.co2     1 SUB1       -0.535
      5 O3P        11.8310   81.5140   41.1860 O.co2     1 SUB1       -0.535
      6 O5'        11.1220   83.6140   41.8860 O.3       1 SUB1       -0.317
      7 C5'        11.1220   84.7260   42.7530 C.3       1 SUB1        0.111
      8 C4'        10.0300   85.6060   42.2980 C.3       1 SUB1        0.036
      9 N4'         8.8020   84.8890   42.2260 N.4       1 SUB1        0.244
     10 C3'         9.8970   86.7410   43.2480 C.3       1 SUB1        0.132
     11 O3'         9.8970   87.9360   42.4840 O.3       1 SUB1       -0.383
     12 C2'         8.5990   86.4460   43.9420 C.3       1 SUB1        0.132
     13 O2'         7.7480   87.5890   43.9850 O.3       1 SUB1       -0.382
     14 C1'         7.8720   85.2670   43.2330 C.3       1 SUB1        0.023
     15 C9          7.7630   84.0950   44.2180 C.2       1 SUB1       -0.001
     16 C8          8.6610   83.0150   44.3300 C.2       1 SUB1        0.020
     17 N7          8.3770   82.1430   45.2530 N.pl3     1 SUB1       -0.295
     18 C5          7.2110   82.6350   45.8400 C.2       1 SUB1        0.123
     19 C6          6.4410   82.0940   46.9260 C.2       1 SUB1        0.235
     20 O6          6.6760   81.0690   47.5580 O.2       1 SUB1       -0.404
     21 N1          5.3090   82.8660   47.2390 N.am      1 SUB1       -0.186
     22 N2          3.8420   84.6860   46.9810 N.pl3     1 SUB1       -0.285
     23 N3          5.6890   84.5850   45.5440 N.2       1 SUB1       -0.329
     24 C4          6.8070   83.8290   45.2170 C.2       1 SUB1       -0.004
     25 H71        10.9343   84.4086   43.7893 H         1 SUB1        0.067
     26 H72        12.0799   85.2634   42.6930 H         1 SUB1        0.067
     27 H81        10.2742   86.0091   41.3041 H         1 SUB1        0.090
     28 H91         8.3755   85.0615   41.3291 H         1 SUB1        0.203
     29 H92         8.9920   83.9049   42.3326 H         1 SUB1        0.203
     30 H101       10.7134   86.7663   43.9847 H         1 SUB1        0.068
     31 H111        9.8130   88.6824   43.0657 H         1 SUB1        0.210
     32 H121        8.8176   86.1340   44.9739 H         1 SUB1        0.069
     33 H131        7.5548   87.8721   43.0990 H         1 SUB1        0.210
     34 H141        6.8841   85.5430   42.8357 H         1 SUB1        0.096
     35 H161        9.5344   82.9167   43.6870 H         1 SUB1        0.077
     36 H171        8.8945   81.2859   45.4948 H         1 SUB1        0.225
     37 H211        4.7189   82.5502   47.9820 H         1 SUB1        0.249
     38 H221        3.5445   85.5589   46.5223 H         1 SUB1        0.187
     39 H222        3.2857   84.2955   47.7549 H         1 SUB1        0.187
@<TRIPOS>BOND
     1    1    3 2  
     2    1    4 2  
     3    1    5 2  
     4    1    6 1  
     5    6    7 1  
     6    7    8 1  
     7    8    9 1  
     8    8   10 1  
     9    9   14 1  
    10   10   11 1  
    11   10   12 1  
    12   12   13 1  
    13   12   14 1  
    14   14   15 1  
    15   15   16 2  
    16   15   24 1  
    17   16   17 1  
    18   17   18 1  
    19   18   19 1  
    20   18   24 2  
    21   19   20 2  
    22   19   21 am 
    23   24   23 1  
    24   23    2 2  
    25    2   22 1  
    26   21    2 am 
    27    7   25 1  
    28    7   26 1  
    29    8   27 1  
    30    9   28 1  
    31    9   29 1  
    32   10   30 1  
    33   11   31 1  
    34   12   32 1  
    35   13   33 1  
    36   14   34 1  
    37   16   35 1  
    38   17   36 1  
    39   21   37 1  
    40   22   38 1  
    41   22   39 1  
@<TRIPOS>SUBSTRUCTURE
     1 SUB1        1 GROUP

