### 
### Created by X-TOOL on Mon Oct 24 22:19:24 2005
### 

@<TRIPOS>MOLECULE
1q91_ligand
   45    48     1     0     0
SMALL
GAST_HUCK


@<TRIPOS>ATOM
      1 C11        15.7740   41.6990   23.9790 C.ar      1 SUB1       -0.032
      2 C12        14.4380   41.9450   23.7540 C.ar      1 SUB1       -0.034
      3 C7         13.7480   41.0560   22.7860 C.ar      1 SUB1        0.012
      4 C8         14.4380   39.9480   22.0790 C.ar      1 SUB1       -0.034
      5 C9         15.8150   39.7640   22.3690 C.ar      1 SUB1       -0.032
      6 C10        16.5820   40.5820   23.3040 C.ar      1 SUB1       -0.034
      7 C2          9.4350   38.6720   27.0970 C.2       1 SUB1        0.326
      8 N1         10.0390   39.8490   26.6120 N.am      1 SUB1       -0.174
      9 C6         11.2860   40.4190   27.1200 C.2       1 SUB1        0.052
     10 C5         11.8550   39.6750   28.1690 C.2       1 SUB1        0.023
     11 C4         11.1870   38.4470   28.6500 C.2       1 SUB1        0.193
     12 N3         10.0600   38.0070   28.1230 N.am      1 SUB1       -0.186
     13 O2          8.3870   38.1750   26.6860 O.2       1 SUB1       -0.384
     14 O4         11.7220   37.7990   29.5990 O.2       1 SUB1       -0.408
     15 C5M        13.2490   40.2440   28.8010 C.3       1 SUB1       -0.044
     16 UNK_16      9.3270   40.5270   25.5250 C.3       1 SUB1        0.176
     17 UNK_17      9.4360   39.7110   24.3840 O.3       1 SUB1       -0.340
     18 UNK_18     10.0400   41.8640   23.7150 C.3       1 SUB1        0.084
     19 UNK_19      9.4870   40.6530   23.3520 C.3       1 SUB1        0.110
     20 UNK_20      9.7220   41.8760   25.1090 C.3       1 SUB1        0.030
     21 UNK_21     10.2390   40.1820   22.1920 C.3       1 SUB1        0.069
     22 UNK_22     11.4590   41.8790   23.6720 O.3       1 SUB1       -0.374
     23 UNK_23     12.2490   41.3800   22.5670 C.3       1 SUB1        0.209
     24 UNK_24     11.7040   40.1400   22.1030 O.3       1 SUB1       -0.377
     25 P          12.1190   42.6730   21.1550 P.3       1 SUB1        0.095
     26 O2P        12.7140   41.7740   19.9890 O.co2     1 SUB1       -0.547
     27 O1P        13.0710   43.7590   21.4450 O.co2     1 SUB1       -0.547
     28 O3P        10.6860   43.0560   20.8290 O.co2     1 SUB1       -0.547
     29 H11        16.2922   42.3399   24.6831 H         1 SUB1        0.070
     30 H21        13.9154   42.7491   24.2594 H         1 SUB1        0.085
     31 H41        13.9154   39.3103   21.3753 H         1 SUB1        0.085
     32 H51        16.3339   38.9595   21.8605 H         1 SUB1        0.070
     33 H61        17.6340   40.4145   23.5047 H         1 SUB1        0.086
     34 H91        11.7308   41.3309   26.7245 H         1 SUB1        0.101
     35 H121        9.6505   37.1675   28.4801 H         1 SUB1        0.226
     36 H151       13.5408   41.1651   28.2753 H         1 SUB1        0.030
     37 H152       14.0400   39.4887   28.6838 H         1 SUB1        0.030
     38 H153       13.1052   40.4616   29.8696 H         1 SUB1        0.030
     39 H161        8.2722   40.5872   25.8311 H         1 SUB1        0.096
     40 H181        9.6128   42.7039   23.1475 H         1 SUB1        0.061
     41 H191        8.4486   40.8354   23.0381 H         1 SUB1        0.064
     42 H201       10.6033   42.1952   25.6846 H         1 SUB1        0.034
     43 H202        8.8923   42.5749   25.2910 H         1 SUB1        0.034
     44 H211        9.9114   40.8134   21.3530 H         1 SUB1        0.058
     45 H212        9.9045   39.1475   22.0249 H         1 SUB1        0.058
@<TRIPOS>BOND
     1    2    1 ar 
     2    1    6 ar 
     3    3    2 ar 
     4    3    4 ar 
     5   23    3 1  
     6    4    5 ar 
     7    5    6 ar 
     8    8    7 am 
     9    7   12 am 
    10    7   13 2  
    11    8    9 am 
    12   16    8 1  
    13    9   10 2  
    14   10   11 1  
    15   10   15 1  
    16   12   11 am 
    17   11   14 2  
    18   16   17 1  
    19   20   16 1  
    20   19   17 1  
    21   18   19 1  
    22   18   20 1  
    23   22   18 1  
    24   19   21 1  
    25   21   24 1  
    26   22   23 1  
    27   23   24 1  
    28   23   25 1  
    29   25   26 2  
    30   25   27 2  
    31   25   28 2  
    32    1   29 1  
    33    2   30 1  
    34    4   31 1  
    35    5   32 1  
    36    6   33 1  
    37    9   34 1  
    38   12   35 1  
    39   15   36 1  
    40   15   37 1  
    41   15   38 1  
    42   16   39 1  
    43   18   40 1  
    44   19   41 1  
    45   20   42 1  
    46   20   43 1  
    47   21   44 1  
    48   21   45 1  
@<TRIPOS>SUBSTRUCTURE
     1 SUB1        1 GROUP

