### 
### Created by X-TOOL on Tue Oct 25 01:25:46 2005
### 

@<TRIPOS>MOLECULE
1tsy_ligand
   31    32     1     0     0
SMALL
GAST_HUCK


@<TRIPOS>ATOM
      1 N1         14.4320   48.8460  -53.9840 N.am      1 SUB1       -0.162
      2 C2         13.6810   47.7990  -53.4490 C.2       1 SUB1        0.333
      3 N3         12.9580   48.0870  -52.3080 N.am      1 SUB1       -0.186
      4 C4         12.9180   49.3370  -51.6860 C.2       1 SUB1        0.182
      5 C5         13.7170   50.3590  -52.3230 C.2       1 SUB1        0.006
      6 C6         14.4450   50.0460  -53.4640 C.2       1 SUB1        0.059
      7 O2         13.5510   46.6740  -53.9080 O.2       1 SUB1       -0.382
      8 O4         12.2290   49.5410  -50.6860 O.2       1 SUB1       -0.412
      9 C1         15.4310   48.7120  -55.0260 C.3       1 SUB1        0.180
     10 C2         14.9880   48.4110  -56.4520 C.3       1 SUB1        0.032
     11 C3         16.2850   48.6140  -57.2230 C.3       1 SUB1        0.089
     12 C4         16.8830   49.9300  -56.7110 C.3       1 SUB1        0.115
     13 O3         17.1560   47.5630  -56.7960 O.3       1 SUB1       -0.389
     14 O4         16.3330   49.8850  -55.3080 O.3       1 SUB1       -0.339
     15 C5         16.3040   51.1290  -57.4720 C.3       1 SUB1        0.094
     16 O5         16.8970   51.2580  -58.8460 O.3       1 SUB1       -0.320
     17 P          15.9310   51.7260  -59.9750 P.3       1 SUB1        0.205
     18 O1P        15.2600   53.0010  -59.6920 O.co2     1 SUB1       -0.535
     19 O2P        16.4480   51.8180  -61.3870 O.co2     1 SUB1       -0.535
     20 O3P        14.9570   50.6300  -59.8960 O.co2     1 SUB1       -0.535
     21 H31        12.4247   47.3473  -51.8976 H         1 SUB1        0.226
     22 H51        13.7481   51.3668  -51.9117 H         1 SUB1        0.026
     23 H61        15.0436   50.8219  -53.9390 H         1 SUB1        0.118
     24 H91        16.0596   47.8753  -54.6873 H         1 SUB1        0.097
     25 H101       14.2081   49.1109  -56.7866 H         1 SUB1        0.034
     26 H102       14.6205   47.3788  -56.5490 H         1 SUB1        0.034
     27 H111       16.1342   48.6185  -58.3126 H         1 SUB1        0.062
     28 H121       17.9824   49.9444  -56.7443 H         1 SUB1        0.065
     29 H131       17.2075   47.5617  -55.8474 H         1 SUB1        0.210
     30 H151       16.5171   52.0471  -56.9048 H         1 SUB1        0.064
     31 H152       15.2156   50.9997  -57.5649 H         1 SUB1        0.064
@<TRIPOS>BOND
     1    1    2 am 
     2    1    6 1  
     3    1    9 1  
     4    2    3 am 
     5    2    7 2  
     6    3    4 am 
     7    4    5 1  
     8    4    8 2  
     9    5    6 2  
    10    9   10 1  
    11    9   14 1  
    12   10   11 1  
    13   11   12 1  
    14   11   13 1  
    15   12   14 1  
    16   12   15 1  
    17   15   16 1  
    18   16   17 1  
    19   17   18 2  
    20   17   19 2  
    21   17   20 2  
    22    3   21 1  
    23    5   22 1  
    24    6   23 1  
    25    9   24 1  
    26   10   25 1  
    27   10   26 1  
    28   11   27 1  
    29   12   28 1  
    30   13   29 1  
    31   15   30 1  
    32   15   31 1  
@<TRIPOS>SUBSTRUCTURE
     1 SUB1        1 GROUP

