### 
### Created by X-TOOL on Mon Oct 24 23:23:59 2005
### 

@<TRIPOS>MOLECULE
1s39_ligand
   19    20     1     0     0
SMALL
GAST_HUCK


@<TRIPOS>ATOM
      1 C1         18.1570   17.1460   19.1100 C.ar      1 SUB1       -0.059
      2 C2         16.8480   16.7120   18.7390 C.ar      1 SUB1       -0.056
      3 C3         15.8400   16.5470   19.7200 C.ar      1 SUB1       -0.047
      4 C4         16.1130   16.8130   21.1020 C.ar      1 SUB1        0.005
      5 N5         15.0980   16.6460   22.0520 N.2       1 SUB1       -0.302
      6 C6         15.3240   16.8840   23.3250 C.2       1 SUB1        0.234
      7 N7         14.3360   16.7300   24.3030 N.pl3     1 SUB1       -0.279
      8 N8         16.6160   17.3270   23.8100 N.am      1 SUB1       -0.182
      9 C9         17.7220   17.5250   22.8910 C.2       1 SUB1        0.217
     10 O10        18.8180   17.9050   23.3400 O.2       1 SUB1       -0.404
     11 C11        17.4410   17.2520   21.4730 C.ar      1 SUB1        0.044
     12 C12        18.4480   17.4130   20.4680 C.2       1 SUB1       -0.056
     13 H11        18.9241   17.2702   18.3542 H         1 SUB1        0.066
     14 H21        16.6242   16.5073   17.6983 H         1 SUB1        0.064
     15 H31        14.8515   16.2160   19.4227 H         1 SUB1        0.064
     16 H71        13.3913   16.4181   24.0361 H         1 SUB1        0.190
     17 H72        14.5531   16.9285   25.2901 H         1 SUB1        0.190
     18 H81        16.7467   17.4978   24.7866 H         1 SUB1        0.252
     19 H121       19.4461   17.7437   20.7516 H         1 SUB1        0.060
@<TRIPOS>BOND
     1    1    2 ar 
     2    1   12 ar 
     3    2    3 ar 
     4    3    4 ar 
     5    4    5 1  
     6    4   11 ar 
     7    5    6 2  
     8    6    7 1  
     9    6    8 am 
    10    8    9 am 
    11    9   10 2  
    12    9   11 1  
    13   11   12 ar 
    14    1   13 1  
    15    2   14 1  
    16    3   15 1  
    17    7   16 1  
    18    7   17 1  
    19    8   18 1  
    20   12   19 1  
@<TRIPOS>SUBSTRUCTURE
     1 SUB1        1 GROUP

