### 
### Created by X-TOOL on Tue Oct 25 00:09:03 2005
### 

@<TRIPOS>MOLECULE
1mrs_ligand
   35    36     1     0     0
SMALL
GAST_HUCK


@<TRIPOS>ATOM
      1 P          26.4290   15.2810    8.3730 P.3       1 SUB1        0.205
      2 O1P        27.4210   14.8400    9.5550 O.co2     1 SUB1       -0.535
      3 O2P        25.5450   16.6390    8.8350 O.co2     1 SUB1       -0.535
      4 O3P        27.2720   15.6440    6.9850 O.co2     1 SUB1       -0.535
      5 O5'        25.3510   14.1790    8.1290 O.3       1 SUB1       -0.320
      6 C5'        25.3440   13.0540    7.3450 C.3       1 SUB1        0.094
      7 C4'        23.9370   12.4280    7.5210 C.3       1 SUB1        0.115
      8 O4'        23.8310   11.0130    7.7110 O.3       1 SUB1       -0.339
      9 C3'        22.9490   12.8970    8.6520 C.3       1 SUB1        0.089
     10 O3'        21.4840   13.1190    8.4360 O.3       1 SUB1       -0.389
     11 C2'        23.5020   11.9320    9.7490 C.3       1 SUB1        0.031
     12 C1'        23.5510   10.6290    9.0420 C.3       1 SUB1        0.176
     13 N1         24.5820    9.6320    9.3830 N.am      1 SUB1       -0.174
     14 C2         24.0980    8.3690    9.6460 C.2       1 SUB1        0.326
     15 O2         22.8300    8.1360    9.5760 O.2       1 SUB1       -0.384
     16 N3         24.9180    7.3630    9.9780 N.am      1 SUB1       -0.186
     17 C4         26.2480    7.5750   10.0590 C.2       1 SUB1        0.195
     18 O4         27.0210    6.5500   10.3930 O.2       1 SUB1       -0.408
     19 C5         26.8010    8.8510    9.7950 C.2       1 SUB1        0.051
     20 C5A        28.2830    9.0410    9.8900 C.3       1 SUB1        0.066
     21 C6         25.9230    9.8800    9.4540 C.2       1 SUB1        0.055
     22 O5B        28.6390    8.8530    8.9170 O.3       1 SUB1       -0.391
     23 H61        25.5068   13.3144    6.2888 H         1 SUB1        0.064
     24 H62        26.1132   12.3420    7.6786 H         1 SUB1        0.064
     25 H71        23.4372   12.6700    6.5715 H         1 SUB1        0.065
     26 H91        23.2793   13.9026    8.9513 H         1 SUB1        0.062
     27 H101       21.0836   13.3983    9.2510 H         1 SUB1        0.210
     28 H111       24.5081   12.2310   10.0780 H         1 SUB1        0.034
     29 H112       22.8254   11.8766   10.6145 H         1 SUB1        0.034
     30 H121       22.5732   10.1338    9.1345 H         1 SUB1        0.096
     31 H161       24.5442    6.4547   10.1658 H         1 SUB1        0.226
     32 H201       28.5299   10.0701   10.1900 H         1 SUB1        0.062
     33 H202       28.7271    8.3269   10.5990 H         1 SUB1        0.062
     34 H211       26.3058   10.8779    9.2451 H         1 SUB1        0.101
     35 H221       29.5833    8.9561    8.9011 H         1 SUB1        0.211
@<TRIPOS>BOND
     1    1    2 2  
     2    1    3 2  
     3    1    4 2  
     4    1    5 1  
     5    5    6 1  
     6    6    7 1  
     7    7    8 1  
     8    7    9 1  
     9    8   12 1  
    10    9   10 1  
    11    9   11 1  
    12   11   12 1  
    13   12   13 1  
    14   13   14 am 
    15   13   21 am 
    16   14   15 2  
    17   14   16 am 
    18   16   17 am 
    19   17   18 2  
    20   17   19 1  
    21   19   20 1  
    22   19   21 2  
    23   20   22 1  
    24    6   23 1  
    25    6   24 1  
    26    7   25 1  
    27    9   26 1  
    28   10   27 1  
    29   11   28 1  
    30   11   29 1  
    31   12   30 1  
    32   16   31 1  
    33   20   32 1  
    34   20   33 1  
    35   21   34 1  
    36   22   35 1  
@<TRIPOS>SUBSTRUCTURE
     1 SUB1        1 GROUP

