1mrs_ligand
  -I-interpret- 

 35 36  0  0  0  0  0  0  0  0999 V2000
   26.4290   15.2810    8.3730 P   0  0  0  0  0
   27.4210   14.8400    9.5550 O   0  0  0  0  0
   25.5450   16.6390    8.8350 O   0  5  0  0  0
   27.2720   15.6440    6.9850 O   0  5  0  0  0
   25.3510   14.1790    8.1290 O   0  0  0  0  0
   25.3440   13.0540    7.3450 C   0  0  0  0  0
   23.9370   12.4280    7.5210 C   0  0  0  0  0
   23.8310   11.0130    7.7110 O   0  0  0  0  0
   22.9490   12.8970    8.6520 C   0  0  0  0  0
   21.4840   13.1190    8.4360 O   0  0  0  0  0
   23.5020   11.9320    9.7490 C   0  0  0  0  0
   23.5510   10.6290    9.0420 C   0  0  0  0  0
   24.5820    9.6320    9.3830 N   0  0  0  0  0
   24.0980    8.3690    9.6460 C   0  0  0  0  0
   22.8300    8.1360    9.5760 O   0  0  0  0  0
   24.9180    7.3630    9.9780 N   0  0  0  0  0
   26.2480    7.5750   10.0590 C   0  0  0  0  0
   27.0210    6.5500   10.3930 O   0  0  0  0  0
   26.8010    8.8510    9.7950 C   0  0  0  0  0
   28.2830    9.0410    9.8900 C   0  0  0  0  0
   25.9230    9.8800    9.4540 C   0  0  0  0  0
   28.6390    8.8530    8.9170 O   0  0  0  0  0
   25.5068   13.3144    6.2888 H   0  0  0  0  0
   26.1132   12.3420    7.6786 H   0  0  0  0  0
   23.4372   12.6700    6.5715 H   0  0  0  0  0
   23.2793   13.9026    8.9513 H   0  0  0  0  0
   21.0836   13.3983    9.2510 H   0  0  0  0  0
   24.5081   12.2310   10.0780 H   0  0  0  0  0
   22.8254   11.8766   10.6145 H   0  0  0  0  0
   22.5732   10.1338    9.1345 H   0  0  0  0  0
   24.5442    6.4547   10.1658 H   0  0  0  0  0
   28.5299   10.0701   10.1900 H   0  0  0  0  0
   28.7271    8.3269   10.5990 H   0  0  0  0  0
   26.3058   10.8779    9.2451 H   0  0  0  0  0
   29.5833    8.9561    8.9011 H   0  0  0  0  0
  1  2  2  0  0  0
  1  3  1  0  0  0
  1  4  1  0  0  0
  1  5  1  0  0  0
  5  6  1  0  0  0
  6  7  1  0  0  0
  7  8  1  0  0  0
  7  9  1  0  0  0
  8 12  1  0  0  0
  9 10  1  0  0  0
  9 11  1  0  0  0
 11 12  1  0  0  0
 12 13  1  0  0  0
 13 14  1  0  0  0
 13 21  1  0  0  0
 14 15  2  0  0  0
 14 16  1  0  0  0
 16 17  1  0  0  0
 17 18  2  0  0  0
 17 19  1  0  0  0
 19 20  1  0  0  0
 19 21  2  0  0  0
 20 22  1  0  0  0
  6 23  1  0  0  0
  6 24  1  0  0  0
  7 25  1  0  0  0
  9 26  1  0  0  0
 10 27  1  0  0  0
 11 28  1  0  0  0
 11 29  1  0  0  0
 12 30  1  0  0  0
 16 31  1  0  0  0
 20 32  1  0  0  0
 20 33  1  0  0  0
 21 34  1  0  0  0
 22 35  1  0  0  0
M  END
$$$$
