### 
### Created by X-TOOL on Mon Oct 24 22:20:03 2005
### 

@<TRIPOS>MOLECULE
1sri_ligand
   33    34     1     0     0
SMALL
GAST_HUCK


@<TRIPOS>ATOM
      1 C1         18.7390    4.7560   11.9850 C.ar      1 SUB1        0.080
      2 C2         17.5190    5.1370   11.4530 C.ar      1 SUB1        0.032
      3 C3         17.2730    5.0360   10.0610 C.ar      1 SUB1       -0.045
      4 C4         18.2830    4.5460    9.2380 C.ar      1 SUB1       -0.056
      5 C5         19.5110    4.1590    9.7820 C.ar      1 SUB1       -0.054
      6 C6         19.7490    4.2570   11.1420 C.ar      1 SUB1       -0.032
      7 C1'        20.5890    4.0840   15.0770 C.ar      1 SUB1        0.047
      8 C2'        20.2280    4.8620   16.1810 C.ar      1 SUB1       -0.047
      9 C3'        21.1340    5.0440   17.2360 C.ar      1 SUB1       -0.015
     10 C4'        22.3960    4.4560   17.1770 C.ar      1 SUB1        0.099
     11 C5'        22.7640    3.6660   16.0850 C.ar      1 SUB1       -0.015
     12 C6'        21.8520    3.4780   15.0380 C.ar      1 SUB1       -0.047
     13 C          16.3980    5.7470   12.3030 C.2       1 SUB1        0.086
     14 CM3        20.7660    5.9060   18.4480 C.3       1 SUB1       -0.033
     15 CM5        24.1600    3.0170   16.0630 C.3       1 SUB1       -0.033
     16 N1         18.9980    4.8460   13.4470 N.2       1 SUB1       -0.194
     17 N1'        19.6300    3.8870   13.9750 N.2       1 SUB1       -0.203
     18 O          15.3260    6.3100   11.5340 O.co2     1 SUB1       -0.535
     19 OXT        16.4080    5.8770   13.4910 O.co2     1 SUB1       -0.535
     20 O4'        23.3190    4.6550   18.2530 O.3       1 SUB1       -0.335
     21 H31        16.3173    5.3344    9.6455 H         1 SUB1        0.066
     22 H41        18.1164    4.4641    8.1700 H         1 SUB1        0.064
     23 H51        20.2878    3.7768    9.1297 H         1 SUB1        0.065
     24 H61        20.7044    3.9522   11.5537 H         1 SUB1        0.067
     25 H81        19.2484    5.3243   16.2216 H         1 SUB1        0.052
     26 H121       22.1255    2.8590   14.1912 H         1 SUB1        0.052
     27 H141       19.7410    6.2872   18.3292 H         1 SUB1        0.037
     28 H142       21.4654    6.7518   18.5224 H         1 SUB1        0.037
     29 H143       20.8273    5.2980   19.3626 H         1 SUB1        0.037
     30 H151       24.7075    3.2939   16.9760 H         1 SUB1        0.037
     31 H152       24.7148    3.3704   15.1814 H         1 SUB1        0.037
     32 H153       24.0551    1.9230   16.0160 H         1 SUB1        0.037
     33 H201       24.1277    4.1935   18.0645 H         1 SUB1        0.247
@<TRIPOS>BOND
     1    1   16 1  
     2    1    6 ar 
     3    1    2 ar 
     4    2   13 1  
     5    2    3 ar 
     6    3    4 ar 
     7    4    5 ar 
     8    5    6 ar 
     9   13   19 2  
    10   13   18 2  
    11   16   17 2  
    12   17    7 1  
    13    7   12 ar 
    14    7    8 ar 
    15    8    9 ar 
    16    9   14 1  
    17    9   10 ar 
    18   10   20 1  
    19   10   11 ar 
    20   11   15 1  
    21   11   12 ar 
    22    3   21 1  
    23    4   22 1  
    24    5   23 1  
    25    6   24 1  
    26    8   25 1  
    27   12   26 1  
    28   14   27 1  
    29   14   28 1  
    30   14   29 1  
    31   15   30 1  
    32   15   31 1  
    33   15   32 1  
    34   20   33 1  
@<TRIPOS>SUBSTRUCTURE
     1 SUB1        1 GROUP

