1sri_ligand
  -I-interpret- 

 33 34  0  0  0  0  0  0  0  0999 V2000
   18.7390    4.7560   11.9850 C   0  0  0  0  0
   17.5190    5.1370   11.4530 C   0  0  0  0  0
   17.2730    5.0360   10.0610 C   0  0  0  0  0
   18.2830    4.5460    9.2380 C   0  0  0  0  0
   19.5110    4.1590    9.7820 C   0  0  0  0  0
   19.7490    4.2570   11.1420 C   0  0  0  0  0
   20.5890    4.0840   15.0770 C   0  0  0  0  0
   20.2280    4.8620   16.1810 C   0  0  0  0  0
   21.1340    5.0440   17.2360 C   0  0  0  0  0
   22.3960    4.4560   17.1770 C   0  0  0  0  0
   22.7640    3.6660   16.0850 C   0  0  0  0  0
   21.8520    3.4780   15.0380 C   0  0  0  0  0
   16.3980    5.7470   12.3030 C   0  0  0  0  0
   20.7660    5.9060   18.4480 C   0  0  0  0  0
   24.1600    3.0170   16.0630 C   0  0  0  0  0
   18.9980    4.8460   13.4470 N   0  0  0  0  0
   19.6300    3.8870   13.9750 N   0  0  0  0  0
   15.3260    6.3100   11.5340 O   0  5  0  0  0
   16.4080    5.8770   13.4910 O   0  0  0  0  0
   23.3190    4.6550   18.2530 O   0  0  0  0  0
   16.3173    5.3344    9.6455 H   0  0  0  0  0
   18.1164    4.4641    8.1700 H   0  0  0  0  0
   20.2878    3.7768    9.1297 H   0  0  0  0  0
   20.7044    3.9522   11.5537 H   0  0  0  0  0
   19.2484    5.3243   16.2216 H   0  0  0  0  0
   22.1255    2.8590   14.1912 H   0  0  0  0  0
   19.7410    6.2872   18.3292 H   0  0  0  0  0
   21.4654    6.7518   18.5224 H   0  0  0  0  0
   20.8273    5.2980   19.3626 H   0  0  0  0  0
   24.7075    3.2939   16.9760 H   0  0  0  0  0
   24.7148    3.3704   15.1814 H   0  0  0  0  0
   24.0551    1.9230   16.0160 H   0  0  0  0  0
   24.1277    4.1935   18.0645 H   0  0  0  0  0
  1 16  1  0  0  0
  1  6  4  0  0  0
  1  2  4  0  0  0
  2 13  1  0  0  0
  2  3  4  0  0  0
  3  4  4  0  0  0
  4  5  4  0  0  0
  5  6  4  0  0  0
 13 19  2  0  0  0
 13 18  1  0  0  0
 16 17  2  0  0  0
 17  7  1  0  0  0
  7 12  4  0  0  0
  7  8  4  0  0  0
  8  9  4  0  0  0
  9 14  1  0  0  0
  9 10  4  0  0  0
 10 20  1  0  0  0
 10 11  4  0  0  0
 11 15  1  0  0  0
 11 12  4  0  0  0
  3 21  1  0  0  0
  4 22  1  0  0  0
  5 23  1  0  0  0
  6 24  1  0  0  0
  8 25  1  0  0  0
 12 26  1  0  0  0
 14 27  1  0  0  0
 14 28  1  0  0  0
 14 29  1  0  0  0
 15 30  1  0  0  0
 15 31  1  0  0  0
 15 32  1  0  0  0
 20 33  1  0  0  0
M  END
$$$$
