### 
### Created by X-TOOL on Mon Oct 24 23:07:06 2005
### 

@<TRIPOS>MOLECULE
1fkn_ligand
  125   125     1     0     0
SMALL
GAST_HUCK


@<TRIPOS>ATOM
      1 H101       11.8624    6.9539   -4.8515 H         1 SUB1        0.201
      2 H111       11.0013    7.0904   -2.2228 H         1 SUB1        0.110
      3 H141        9.0086    5.6444   -4.0320 H         1 SUB1        0.038
      4 H142        8.7187    7.2830   -3.3556 H         1 SUB1        0.038
      5 H151        8.8683    6.3876   -1.0703 H         1 SUB1        0.049
      6 H152        9.2216    4.7504   -1.7193 H         1 SUB1        0.049
      7 H191       11.7148    5.2051   -1.2063 H         1 SUB1        0.189
      8 H201       12.4305    2.9419   -3.0203 H         1 SUB1        0.080
      9 H231       14.1838    2.3754   -1.1405 H         1 SUB1        0.034
     10 N          11.1570    7.4330   -4.3140 N.4       1 SUB1        0.238
     11 CA         10.7410    6.5750   -3.1590 C.3       1 SUB1        0.068
     12 C          11.4590    5.2160   -3.2060 C.2       1 SUB1        0.227
     13 O          11.6850    4.6680   -4.2780 O.2       1 SUB1       -0.391
     14 CB          9.2290    6.3220   -3.1940 C.3       1 SUB1        0.019
     15 CG          8.6830    5.6920   -1.9020 C.3       1 SUB1       -0.007
     16 CD          7.1950    5.3920   -1.9550 C.2       1 SUB1        0.028
     17 OE1         6.5040    5.9780   -2.8260 O.co2     1 SUB1       -0.567
     18 OE2         6.7060    4.5890   -1.1280 O.co2     1 SUB1       -0.567
     19 N          11.8460    4.6910   -2.0540 N.am      1 SUB1       -0.261
     20 CA         12.4590    3.3760   -2.0100 C.3       1 SUB1        0.133
     21 C          11.6340    2.5320   -1.0730 C.2       1 SUB1        0.204
     22 O          11.0230    3.0340   -0.1150 O.2       1 SUB1       -0.394
     23 CB         13.9430    3.3790   -1.5210 C.3       1 SUB1       -0.006
     24 CG1        14.8850    3.6840   -2.7130 C.3       1 SUB1       -0.058
     25 CG2        14.1430    4.3840   -0.3700 C.3       1 SUB1       -0.058
     26 N          11.5580    1.2470   -1.3920 N.am      1 SUB1       -0.262
     27 CA         10.8480    0.2830   -0.5770 C.3       1 SUB1        0.147
     28 C          11.6510   -1.0010   -0.6620 C.2       1 SUB1        0.204
     29 O          11.2160   -1.9930   -1.2620 O.2       1 SUB1       -0.394
     30 CB          9.4320    0.0740   -1.1140 C.3       1 SUB1        0.077
     31 CG          8.4930    1.1810   -0.6860 C.2       1 SUB1        0.178
     32 OD1         8.0660    1.2140    0.4620 O.2       1 SUB1       -0.397
     33 ND2         8.1800    2.1050   -1.6120 N.am      1 SUB1       -0.301
     34 CD1        16.3510    0.0240   -2.0040 C.3       1 SUB1       -0.063
     35 CD2        15.0550   -1.9690   -2.8990 C.3       1 SUB1       -0.063
     36 CG         15.1090   -0.8940   -1.8110 C.3       1 SUB1       -0.045
     37 CB         15.1310   -1.5880   -0.4350 C.3       1 SUB1       -0.025
     38 N          12.8180   -0.9830   -0.0330 N.am      1 SUB1       -0.279
     39 CA         13.7330   -2.1130   -0.0570 C.3       1 SUB1        0.068
     40 C          13.7650   -2.8810    1.2800 C.3       1 SUB1        0.080
     41 O          14.3540   -2.0710    2.3130 O.3       1 SUB1       -0.389
     42 CM         12.3550   -3.3280    1.7080 C.3       1 SUB1       -0.005
     43 CA         12.3030   -4.5700    2.6030 C.3       1 SUB1        0.048
     44 CB         11.0280   -4.5690    3.4480 C.3       1 SUB1       -0.045
     45 C          12.3390   -5.8260    1.7210 C.2       1 SUB1        0.181
     46 O          11.6030   -5.8910    0.7200 O.2       1 SUB1       -0.397
     47 N          13.2170   -6.7780    2.0740 N.am      1 SUB1       -0.266
     48 CA         13.3150   -8.0710    1.3920 C.3       1 SUB1        0.128
     49 C          11.9290   -8.6670    1.5770 C.2       1 SUB1        0.204
     50 O          11.3660   -8.7050    2.7100 O.2       1 SUB1       -0.394
     51 CB         14.3890   -8.9320    2.0120 C.3       1 SUB1       -0.024
     52 N          11.4140   -9.2850    0.4380 N.am      1 SUB1       -0.263
     53 CA          9.9880   -9.6860    0.1960 C.3       1 SUB1        0.134
     54 C           9.2010  -10.6950    0.9980 C.2       1 SUB1        0.205
     55 O           9.3360  -11.9070    1.0870 O.2       1 SUB1       -0.394
     56 CB          9.7260   -9.7960   -1.3120 C.3       1 SUB1       -0.001
     57 CG          8.7370   -8.7100   -1.7560 C.3       1 SUB1       -0.010
     58 CD          7.5260   -9.2310   -2.5400 C.2       1 SUB1        0.028
     59 OE1         7.6950  -10.1910   -3.3200 O.co2     1 SUB1       -0.567
     60 OE2         6.4110   -8.6810   -2.3570 O.co2     1 SUB1       -0.567
     61 N           8.3300   -9.7800    1.5830 N.am      1 SUB1       -0.266
     62 CA          7.1910   -9.5180    2.5020 C.3       1 SUB1        0.091
     63 C           7.1510  -10.4350    3.7380 C.2       1 SUB1        0.055
     64 O           8.1320  -11.1030    4.1670 O.co2     1 SUB1       -0.564
     65 CB          5.8970   -9.4910    1.7430 C.3       1 SUB1        0.015
     66 CG          5.4730  -10.8800    1.5960 C.ar      1 SUB1       -0.038
     67 CD1         6.4300  -11.8280    1.2760 C.ar      1 SUB1       -0.060
     68 CD2         4.1530  -11.2590    1.7680 C.ar      1 SUB1       -0.060
     69 CE1         6.0760  -13.1640    1.1220 C.ar      1 SUB1       -0.069
     70 CE2         3.7870  -12.5860    1.6470 C.ar      1 SUB1       -0.069
     71 CZ          4.7520  -13.5300    1.3220 C.ar      1 SUB1       -0.069
     72 OXT         6.1230  -10.4800    4.4740 O.co2     1 SUB1       -0.564
     73 H241       14.7653    2.9075   -3.4829 H         1 SUB1        0.023
     74 H242       15.9277    3.6954   -2.3628 H         1 SUB1        0.023
     75 H243       14.6308    4.6656   -3.1395 H         1 SUB1        0.023
     76 H251       13.8937    5.3966   -0.7200 H         1 SUB1        0.023
     77 H252       15.1916    4.3583   -0.0388 H         1 SUB1        0.023
     78 H253       13.4864    4.1145    0.4704 H         1 SUB1        0.023
     79 H261       12.0082    0.9315   -2.2273 H         1 SUB1        0.189
     80 H271       10.7946    0.6299    0.4655 H         1 SUB1        0.083
     81 H301        9.0467   -0.8843   -0.7356 H         1 SUB1        0.055
     82 H302        9.4697    0.0457   -2.2130 H         1 SUB1        0.055
     83 H331        8.5639    2.0398   -2.5331 H         1 SUB1        0.181
     84 H332        7.5634    2.8571   -1.3794 H         1 SUB1        0.181
     85 H471       13.8341   -6.5959    2.8395 H         1 SUB1        0.188
     86 H481       13.5375   -7.9331    0.3236 H         1 SUB1        0.080
     87 H511       14.1505   -9.1098    3.0710 H         1 SUB1        0.028
     88 H512       15.3593   -8.4195    1.9358 H         1 SUB1        0.028
     89 H513       14.4398   -9.8940    1.4810 H         1 SUB1        0.028
     90 H521       12.0641   -9.4820   -0.2959 H         1 SUB1        0.188
     91 H531        9.4645   -8.7608    0.4787 H         1 SUB1        0.080
     92 H561        9.3036  -10.7865   -1.5366 H         1 SUB1        0.035
     93 H562       10.6736   -9.6696   -1.8561 H         1 SUB1        0.035
     94 H571        9.2766   -7.9946   -2.3939 H         1 SUB1        0.049
     95 H572        8.3678   -8.1940   -0.8574 H         1 SUB1        0.049
     96 H611        8.5907   -8.8872    1.2157 H         1 SUB1        0.190
     97 H621        7.3416   -8.5009    2.8928 H         1 SUB1        0.080
     98 H651        6.0460   -9.0327    0.7542 H         1 SUB1        0.049
     99 H652        5.1407   -8.9200    2.3016 H         1 SUB1        0.049
    100 H671        7.4629  -11.5266    1.1445 H         1 SUB1        0.056
    101 H681        3.4028  -10.5114    1.9987 H         1 SUB1        0.056
    102 H691        6.8194  -13.9050    0.8511 H         1 SUB1        0.060
    103 H701        2.7575  -12.8868    1.8041 H         1 SUB1        0.060
    104 H711        4.4665  -14.5710    1.2227 H         1 SUB1        0.056
    105 H102       11.5309    8.3031   -3.9687 H         1 SUB1        0.201
    106 H103       10.3577    7.6194   -4.8992 H         1 SUB1        0.201
    107 H341       16.3033    0.5021   -2.9935 H         1 SUB1        0.023
    108 H342       17.2678   -0.5796   -1.9322 H         1 SUB1        0.023
    109 H343       16.3596    0.7983   -1.2228 H         1 SUB1        0.023
    110 H351       14.1709   -2.6047   -2.7428 H         1 SUB1        0.023
    111 H352       15.9639   -2.5866   -2.8497 H         1 SUB1        0.023
    112 H353       14.9912   -1.4885   -3.8864 H         1 SUB1        0.023
    113 H361       14.2044   -0.2719   -1.8793 H         1 SUB1        0.030
    114 H371       15.4617   -0.8662    0.3263 H         1 SUB1        0.029
    115 H372       15.8348   -2.4327   -0.4697 H         1 SUB1        0.029
    116 H381       13.0784   -0.1627    0.4763 H         1 SUB1        0.186
    117 H391       13.3982   -2.8129   -0.8367 H         1 SUB1        0.058
    118 H401       14.3856   -3.7791    1.1445 H         1 SUB1        0.062
    119 H411       14.3657   -2.5587    3.1282 H         1 SUB1        0.210
    120 H421       11.8865   -2.4961    2.2543 H         1 SUB1        0.032
    121 H422       11.7757   -3.5412    0.7976 H         1 SUB1        0.032
    122 H431       13.1764   -4.5698    3.2717 H         1 SUB1        0.054
    123 H441       11.0084   -5.4669    4.0831 H         1 SUB1        0.026
    124 H442       10.1494   -4.5688    2.7861 H         1 SUB1        0.026
    125 H443       11.0093   -3.6706    4.0825 H         1 SUB1        0.026
@<TRIPOS>BOND
     1   10    1 1  
     2   11    2 1  
     3   14    3 1  
     4   14    4 1  
     5   15    5 1  
     6   15    6 1  
     7   19    7 1  
     8   20    8 1  
     9   12   11 1  
    10   11   14 1  
    11   11   10 1  
    12   14   15 1  
    13   15   16 1  
    14   16   17 2  
    15   16   18 2  
    16   12   13 2  
    17   21   20 1  
    18   20   23 1  
    19   20   19 1  
    20   23   24 1  
    21   23   25 1  
    22   21   22 2  
    23   28   27 1  
    24   27   30 1  
    25   27   26 1  
    26   30   31 1  
    27   31   32 2  
    28   31   33 am 
    29   28   29 2  
    30   36   34 1  
    31   36   35 1  
    32   37   36 1  
    33   39   37 1  
    34   38   39 1  
    35   39   40 1  
    36   40   41 1  
    37   42   43 1  
    38   43   45 1  
    39   43   44 1  
    40   45   46 2  
    41   48   49 1  
    42   48   51 1  
    43   47   48 1  
    44   49   50 2  
    45   53   54 1  
    46   53   56 1  
    47   52   53 1  
    48   56   57 1  
    49   57   58 1  
    50   58   59 2  
    51   58   60 2  
    52   54   55 2  
    53   62   63 1  
    54   62   65 1  
    55   61   62 1  
    56   65   66 1  
    57   66   68 ar 
    58   66   67 ar 
    59   67   69 ar 
    60   69   71 ar 
    61   70   71 ar 
    62   68   70 ar 
    63   63   72 2  
    64   63   64 2  
    65   23    9 1  
    66   24   73 1  
    67   24   74 1  
    68   24   75 1  
    69   25   76 1  
    70   25   77 1  
    71   25   78 1  
    72   26   79 1  
    73   27   80 1  
    74   30   81 1  
    75   30   82 1  
    76   33   83 1  
    77   33   84 1  
    78   47   85 1  
    79   48   86 1  
    80   51   87 1  
    81   51   88 1  
    82   51   89 1  
    83   52   90 1  
    84   53   91 1  
    85   56   92 1  
    86   56   93 1  
    87   57   94 1  
    88   57   95 1  
    89   61   96 1  
    90   62   97 1  
    91   65   98 1  
    92   65   99 1  
    93   67  100 1  
    94   68  101 1  
    95   69  102 1  
    96   70  103 1  
    97   71  104 1  
    98   10  105 1  
    99   10  106 1  
   100   34  107 1  
   101   34  108 1  
   102   34  109 1  
   103   35  110 1  
   104   35  111 1  
   105   35  112 1  
   106   36  113 1  
   107   37  114 1  
   108   37  115 1  
   109   38  116 1  
   110   39  117 1  
   111   40  118 1  
   112   41  119 1  
   113   42  120 1  
   114   42  121 1  
   115   43  122 1  
   116   44  123 1  
   117   44  124 1  
   118   44  125 1  
   119   19   12 am 
   120   26   21 am 
   121   49   52 am 
   122   54   61 am 
   123   40   42 1  
   124   45   47 am 
   125   38   28 am 
@<TRIPOS>SUBSTRUCTURE
     1 SUB1        1 GROUP

