1fkn_ligand
  -I-interpret- 

125125  0  0  0  0  0  0  0  0999 V2000
   11.8624    6.9539   -4.8515 H   0  0  0  0  0
   11.0013    7.0904   -2.2228 H   0  0  0  0  0
    9.0086    5.6444   -4.0320 H   0  0  0  0  0
    8.7187    7.2830   -3.3556 H   0  0  0  0  0
    8.8683    6.3876   -1.0703 H   0  0  0  0  0
    9.2216    4.7504   -1.7193 H   0  0  0  0  0
   11.7148    5.2051   -1.2063 H   0  0  0  0  0
   12.4305    2.9419   -3.0203 H   0  0  0  0  0
   14.1838    2.3754   -1.1405 H   0  0  0  0  0
   11.1570    7.4330   -4.3140 N   0  3  0  0  0
   10.7410    6.5750   -3.1590 C   0  0  0  0  0
   11.4590    5.2160   -3.2060 C   0  0  0  0  0
   11.6850    4.6680   -4.2780 O   0  0  0  0  0
    9.2290    6.3220   -3.1940 C   0  0  0  0  0
    8.6830    5.6920   -1.9020 C   0  0  0  0  0
    7.1950    5.3920   -1.9550 C   0  0  0  0  0
    6.5040    5.9780   -2.8260 O   0  5  0  0  0
    6.7060    4.5890   -1.1280 O   0  0  0  0  0
   11.8460    4.6910   -2.0540 N   0  0  0  0  0
   12.4590    3.3760   -2.0100 C   0  0  0  0  0
   11.6340    2.5320   -1.0730 C   0  0  0  0  0
   11.0230    3.0340   -0.1150 O   0  0  0  0  0
   13.9430    3.3790   -1.5210 C   0  0  0  0  0
   14.8850    3.6840   -2.7130 C   0  0  0  0  0
   14.1430    4.3840   -0.3700 C   0  0  0  0  0
   11.5580    1.2470   -1.3920 N   0  0  0  0  0
   10.8480    0.2830   -0.5770 C   0  0  0  0  0
   11.6510   -1.0010   -0.6620 C   0  0  0  0  0
   11.2160   -1.9930   -1.2620 O   0  0  0  0  0
    9.4320    0.0740   -1.1140 C   0  0  0  0  0
    8.4930    1.1810   -0.6860 C   0  0  0  0  0
    8.0660    1.2140    0.4620 O   0  0  0  0  0
    8.1800    2.1050   -1.6120 N   0  0  0  0  0
   16.3510    0.0240   -2.0040 C   0  0  0  0  0
   15.0550   -1.9690   -2.8990 C   0  0  0  0  0
   15.1090   -0.8940   -1.8110 C   0  0  0  0  0
   15.1310   -1.5880   -0.4350 C   0  0  0  0  0
   12.8180   -0.9830   -0.0330 N   0  0  0  0  0
   13.7330   -2.1130   -0.0570 C   0  0  0  0  0
   13.7650   -2.8810    1.2800 C   0  0  0  0  0
   14.3540   -2.0710    2.3130 O   0  0  0  0  0
   12.3550   -3.3280    1.7080 C   0  0  0  0  0
   12.3030   -4.5700    2.6030 C   0  0  0  0  0
   11.0280   -4.5690    3.4480 C   0  0  0  0  0
   12.3390   -5.8260    1.7210 C   0  0  0  0  0
   11.6030   -5.8910    0.7200 O   0  0  0  0  0
   13.2170   -6.7780    2.0740 N   0  0  0  0  0
   13.3150   -8.0710    1.3920 C   0  0  0  0  0
   11.9290   -8.6670    1.5770 C   0  0  0  0  0
   11.3660   -8.7050    2.7100 O   0  0  0  0  0
   14.3890   -8.9320    2.0120 C   0  0  0  0  0
   11.4140   -9.2850    0.4380 N   0  0  0  0  0
    9.9880   -9.6860    0.1960 C   0  0  0  0  0
    9.2010  -10.6950    0.9980 C   0  0  0  0  0
    9.3360  -11.9070    1.0870 O   0  0  0  0  0
    9.7260   -9.7960   -1.3120 C   0  0  0  0  0
    8.7370   -8.7100   -1.7560 C   0  0  0  0  0
    7.5260   -9.2310   -2.5400 C   0  0  0  0  0
    7.6950  -10.1910   -3.3200 O   0  0  0  0  0
    6.4110   -8.6810   -2.3570 O   0  5  0  0  0
    8.3300   -9.7800    1.5830 N   0  0  0  0  0
    7.1910   -9.5180    2.5020 C   0  0  0  0  0
    7.1510  -10.4350    3.7380 C   0  0  0  0  0
    8.1320  -11.1030    4.1670 O   0  0  0  0  0
    5.8970   -9.4910    1.7430 C   0  0  0  0  0
    5.4730  -10.8800    1.5960 C   0  0  0  0  0
    6.4300  -11.8280    1.2760 C   0  0  0  0  0
    4.1530  -11.2590    1.7680 C   0  0  0  0  0
    6.0760  -13.1640    1.1220 C   0  0  0  0  0
    3.7870  -12.5860    1.6470 C   0  0  0  0  0
    4.7520  -13.5300    1.3220 C   0  0  0  0  0
    6.1230  -10.4800    4.4740 O   0  5  0  0  0
   14.7653    2.9075   -3.4829 H   0  0  0  0  0
   15.9277    3.6954   -2.3628 H   0  0  0  0  0
   14.6308    4.6656   -3.1395 H   0  0  0  0  0
   13.8937    5.3966   -0.7200 H   0  0  0  0  0
   15.1916    4.3583   -0.0388 H   0  0  0  0  0
   13.4864    4.1145    0.4704 H   0  0  0  0  0
   12.0082    0.9315   -2.2273 H   0  0  0  0  0
   10.7946    0.6299    0.4655 H   0  0  0  0  0
    9.0467   -0.8843   -0.7356 H   0  0  0  0  0
    9.4697    0.0457   -2.2130 H   0  0  0  0  0
    8.5639    2.0398   -2.5331 H   0  0  0  0  0
    7.5634    2.8571   -1.3794 H   0  0  0  0  0
   13.8341   -6.5959    2.8395 H   0  0  0  0  0
   13.5375   -7.9331    0.3236 H   0  0  0  0  0
   14.1505   -9.1098    3.0710 H   0  0  0  0  0
   15.3593   -8.4195    1.9358 H   0  0  0  0  0
   14.4398   -9.8940    1.4810 H   0  0  0  0  0
   12.0641   -9.4820   -0.2959 H   0  0  0  0  0
    9.4645   -8.7608    0.4787 H   0  0  0  0  0
    9.3036  -10.7865   -1.5366 H   0  0  0  0  0
   10.6736   -9.6696   -1.8561 H   0  0  0  0  0
    9.2766   -7.9946   -2.3939 H   0  0  0  0  0
    8.3678   -8.1940   -0.8574 H   0  0  0  0  0
    8.5907   -8.8872    1.2157 H   0  0  0  0  0
    7.3416   -8.5009    2.8928 H   0  0  0  0  0
    6.0460   -9.0327    0.7542 H   0  0  0  0  0
    5.1407   -8.9200    2.3016 H   0  0  0  0  0
    7.4629  -11.5266    1.1445 H   0  0  0  0  0
    3.4028  -10.5114    1.9987 H   0  0  0  0  0
    6.8194  -13.9050    0.8511 H   0  0  0  0  0
    2.7575  -12.8868    1.8041 H   0  0  0  0  0
    4.4665  -14.5710    1.2227 H   0  0  0  0  0
   11.5309    8.3031   -3.9687 H   0  0  0  0  0
   10.3577    7.6194   -4.8992 H   0  0  0  0  0
   16.3033    0.5021   -2.9935 H   0  0  0  0  0
   17.2678   -0.5796   -1.9322 H   0  0  0  0  0
   16.3596    0.7983   -1.2228 H   0  0  0  0  0
   14.1709   -2.6047   -2.7428 H   0  0  0  0  0
   15.9639   -2.5866   -2.8497 H   0  0  0  0  0
   14.9912   -1.4885   -3.8864 H   0  0  0  0  0
   14.2044   -0.2719   -1.8793 H   0  0  0  0  0
   15.4617   -0.8662    0.3263 H   0  0  0  0  0
   15.8348   -2.4327   -0.4697 H   0  0  0  0  0
   13.0784   -0.1627    0.4763 H   0  0  0  0  0
   13.3982   -2.8129   -0.8367 H   0  0  0  0  0
   14.3856   -3.7791    1.1445 H   0  0  0  0  0
   14.3657   -2.5587    3.1282 H   0  0  0  0  0
   11.8865   -2.4961    2.2543 H   0  0  0  0  0
   11.7757   -3.5412    0.7976 H   0  0  0  0  0
   13.1764   -4.5698    3.2717 H   0  0  0  0  0
   11.0084   -5.4669    4.0831 H   0  0  0  0  0
   10.1494   -4.5688    2.7861 H   0  0  0  0  0
   11.0093   -3.6706    4.0825 H   0  0  0  0  0
 10  1  1  0  0  0
 11  2  1  0  0  0
 14  3  1  0  0  0
 14  4  1  0  0  0
 15  5  1  0  0  0
 15  6  1  0  0  0
 19  7  1  0  0  0
 20  8  1  0  0  0
 12 11  1  0  0  0
 11 14  1  0  0  0
 11 10  1  0  0  0
 14 15  1  0  0  0
 15 16  1  0  0  0
 16 17  1  0  0  0
 16 18  2  0  0  0
 12 13  2  0  0  0
 21 20  1  0  0  0
 20 23  1  0  0  0
 20 19  1  0  0  0
 23 24  1  0  0  0
 23 25  1  0  0  0
 21 22  2  0  0  0
 28 27  1  0  0  0
 27 30  1  0  0  0
 27 26  1  0  0  0
 30 31  1  0  0  0
 31 32  2  0  0  0
 31 33  1  0  0  0
 28 29  2  0  0  0
 36 34  1  0  0  0
 36 35  1  0  0  0
 37 36  1  0  0  0
 39 37  1  0  0  0
 38 39  1  0  0  0
 39 40  1  0  0  0
 40 41  1  0  0  0
 42 43  1  0  0  0
 43 45  1  0  0  0
 43 44  1  0  0  0
 45 46  2  0  0  0
 48 49  1  0  0  0
 48 51  1  0  0  0
 47 48  1  0  0  0
 49 50  2  0  0  0
 53 54  1  0  0  0
 53 56  1  0  0  0
 52 53  1  0  0  0
 56 57  1  0  0  0
 57 58  1  0  0  0
 58 59  2  0  0  0
 58 60  1  0  0  0
 54 55  2  0  0  0
 62 63  1  0  0  0
 62 65  1  0  0  0
 61 62  1  0  0  0
 65 66  1  0  0  0
 66 68  4  0  0  0
 66 67  4  0  0  0
 67 69  4  0  0  0
 69 71  4  0  0  0
 70 71  4  0  0  0
 68 70  4  0  0  0
 63 72  1  0  0  0
 63 64  2  0  0  0
 23  9  1  0  0  0
 24 73  1  0  0  0
 24 74  1  0  0  0
 24 75  1  0  0  0
 25 76  1  0  0  0
 25 77  1  0  0  0
 25 78  1  0  0  0
 26 79  1  0  0  0
 27 80  1  0  0  0
 30 81  1  0  0  0
 30 82  1  0  0  0
 33 83  1  0  0  0
 33 84  1  0  0  0
 47 85  1  0  0  0
 48 86  1  0  0  0
 51 87  1  0  0  0
 51 88  1  0  0  0
 51 89  1  0  0  0
 52 90  1  0  0  0
 53 91  1  0  0  0
 56 92  1  0  0  0
 56 93  1  0  0  0
 57 94  1  0  0  0
 57 95  1  0  0  0
 61 96  1  0  0  0
 62 97  1  0  0  0
 65 98  1  0  0  0
 65 99  1  0  0  0
 67100  1  0  0  0
 68101  1  0  0  0
 69102  1  0  0  0
 70103  1  0  0  0
 71104  1  0  0  0
 10105  1  0  0  0
 10106  1  0  0  0
 34107  1  0  0  0
 34108  1  0  0  0
 34109  1  0  0  0
 35110  1  0  0  0
 35111  1  0  0  0
 35112  1  0  0  0
 36113  1  0  0  0
 37114  1  0  0  0
 37115  1  0  0  0
 38116  1  0  0  0
 39117  1  0  0  0
 40118  1  0  0  0
 41119  1  0  0  0
 42120  1  0  0  0
 42121  1  0  0  0
 43122  1  0  0  0
 44123  1  0  0  0
 44124  1  0  0  0
 44125  1  0  0  0
 19 12  1  0  0  0
 26 21  1  0  0  0
 49 52  1  0  0  0
 54 61  1  0  0  0
 40 42  1  0  0  0
 45 47  1  0  0  0
 38 28  1  0  0  0
M  END
$$$$
