### 
### Created by X-TOOL on Mon Oct 24 22:50:11 2005
### 

@<TRIPOS>MOLECULE
1x8d_ligand
   21    21     1     0     0
SMALL
GAST_HUCK


@<TRIPOS>ATOM
      1 C1         11.2370   31.7770   10.2980 C.2       1 SUB1        0.266
      2 C2         12.1450   31.8480    9.0710 C.3       1 SUB1        0.183
      3 C3         11.3990   31.2440    7.8730 C.3       1 SUB1        0.128
      4 C4         10.0740   31.9830    7.6650 C.3       1 SUB1        0.116
      5 C5          9.2610   31.9360    8.9670 C.3       1 SUB1        0.113
      6 C6          7.9470   32.6880    8.8920 C.3       1 SUB1       -0.032
      7 O1         11.8730   32.3340   11.3890 O.2       1 SUB1       -0.367
      8 O2         12.4920   33.2080    8.8100 O.3       1 SUB1       -0.367
      9 O3         12.1910   31.3340    6.6960 O.3       1 SUB1       -0.384
     10 O4          9.3550   31.3560    6.6090 O.3       1 SUB1       -0.386
     11 O5         10.0260   32.5060   10.0530 O.3       1 SUB1       -0.269
     12 H21        13.0624   31.2707    9.2582 H         1 SUB1        0.088
     13 H31        11.1900   30.1842    8.0809 H         1 SUB1        0.067
     14 H41        10.2738   33.0312    7.3981 H         1 SUB1        0.065
     15 H51         9.0453   30.8813    9.1929 H         1 SUB1        0.067
     16 H61         7.4241   32.6095    9.8566 H         1 SUB1        0.026
     17 H62         7.3206   32.2536    8.0990 H         1 SUB1        0.026
     18 H63         8.1427   33.7466    8.6662 H         1 SUB1        0.026
     19 H81        12.9522   33.5658    9.5602 H         1 SUB1        0.214
     20 H91        11.7222   30.9407    5.9694 H         1 SUB1        0.210
     21 H101        9.8698   31.3929    5.8114 H         1 SUB1        0.210
@<TRIPOS>BOND
     1    1    2 1  
     2    1    7 2  
     3    1   11 1  
     4    2    3 1  
     5    2    8 1  
     6    3    4 1  
     7    3    9 1  
     8    4    5 1  
     9    4   10 1  
    10    5    6 1  
    11    5   11 1  
    12    2   12 1  
    13    3   13 1  
    14    4   14 1  
    15    5   15 1  
    16    6   16 1  
    17    6   17 1  
    18    6   18 1  
    19    8   19 1  
    20    9   20 1  
    21   10   21 1  
@<TRIPOS>SUBSTRUCTURE
     1 SUB1        1 GROUP

