### 
### Created by X-TOOL on Mon Oct 24 22:50:33 2005
### 

@<TRIPOS>MOLECULE
1z95_ligand
   43    44     1     0     0
SMALL
GAST_HUCK


@<TRIPOS>ATOM
      1 C16        29.1850    1.4670    9.0150 C.ar      1 SUB1       -0.039
      2 C17        28.7480    1.3070   10.3270 C.ar      1 SUB1       -0.026
      3 C18        29.5430    0.6260   11.2440 C.ar      1 SUB1        0.132
      4 F18        29.1270    0.4660   12.5160 F         1 SUB1       -0.183
      5 C19        30.7730    0.1070   10.8520 C.ar      1 SUB1       -0.026
      6 C20        31.2100    0.2690    9.5410 C.ar      1 SUB1       -0.039
      7 C15        30.4160    0.9480    8.6230 C.ar      1 SUB1        0.084
      8 S14        30.9610    1.1230    6.9710 S.o2      1 SUB1       -0.003
      9 O14        30.5010    2.4500    6.4430 O.2       1 SUB1       -0.170
     10 O15        32.4580    1.0530    6.9270 O.2       1 SUB1       -0.170
     11 C13        30.2570   -0.2330    5.9620 C.3       1 SUB1        0.106
     12 C11        29.6810    0.2030    4.6120 C.3       1 SUB1        0.168
     13 O11        30.6660    0.9590    3.9030 O.3       1 SUB1       -0.382
     14 C12        29.2760   -1.0210    3.7880 C.3       1 SUB1       -0.027
     15 C10        28.4490    1.0870    4.8230 C.2       1 SUB1        0.259
     16 O10        27.4440    0.6410    5.3760 O.2       1 SUB1       -0.330
     17 N9         28.6250    2.3570    4.4660 N.am      1 SUB1       -0.219
     18 C1         27.7060    3.3220    4.5180 C.ar      1 SUB1        0.107
     19 C2         26.3660    3.0880    4.8190 C.ar      1 SUB1        0.001
     20 C6         28.0950    4.6030    4.1420 C.ar      1 SUB1       -0.001
     21 C5         27.1500    5.6220    4.0830 C.ar      1 SUB1       -0.012
     22 C4         25.8150    5.3730    4.3880 C.ar      1 SUB1        0.107
     23 C8         24.9330    6.4990    4.3240 C.1       1 SUB1        0.105
     24 N8         24.2430    7.4020    4.2630 N.1       1 SUB1       -0.326
     25 C3         25.3950    4.0900    4.7550 C.ar      1 SUB1        0.067
     26 C7         23.9310    3.7310    5.0750 C.3       1 SUB1        0.379
     27 F7B        23.7140    3.8720    6.3790 F         1 SUB1       -0.219
     28 F7C        23.0300    4.4730    4.4370 F         1 SUB1       -0.219
     29 F7A        23.6400    2.4740    4.7490 F         1 SUB1       -0.219
     30 H11        28.5668    1.9957    8.2985 H         1 SUB1        0.063
     31 H21        27.7904    1.7120   10.6337 H         1 SUB1        0.060
     32 H51        31.3906   -0.4234   11.5678 H         1 SUB1        0.060
     33 H61        32.1688   -0.1338    9.2353 H         1 SUB1        0.063
     34 H111       29.4507   -0.7071    6.5409 H         1 SUB1        0.052
     35 H112       31.0535   -0.9677    5.7728 H         1 SUB1        0.052
     36 H131       30.9022    1.7255    4.4121 H         1 SUB1        0.208
     37 H141       28.8645   -0.6929    2.8221 H         1 SUB1        0.024
     38 H142       28.5140   -1.5955    4.3350 H         1 SUB1        0.024
     39 H143       30.1583   -1.6545    3.6144 H         1 SUB1        0.024
     40 H171       29.5308    2.6113    4.1272 H         1 SUB1        0.232
     41 H191       26.0652    2.0893    5.1144 H         1 SUB1        0.078
     42 H201       29.1308    4.8067    3.8958 H         1 SUB1        0.077
     43 H211       27.4568    6.6214    3.7962 H         1 SUB1        0.077
@<TRIPOS>BOND
     1    1    2 ar 
     2    1    7 ar 
     3    2    3 ar 
     4    3    4 1  
     5    3    5 ar 
     6    5    6 ar 
     7    6    7 ar 
     8    7    8 1  
     9    8    9 2  
    10    8   10 2  
    11    8   11 1  
    12   11   12 1  
    13   12   13 1  
    14   12   14 1  
    15   12   15 1  
    16   15   16 2  
    17   15   17 am 
    18   17   18 1  
    19   18   19 ar 
    20   18   20 ar 
    21   19   25 ar 
    22   20   21 ar 
    23   21   22 ar 
    24   22   23 1  
    25   22   25 ar 
    26   23   24 3  
    27   25   26 1  
    28   26   27 1  
    29   26   28 1  
    30   26   29 1  
    31    1   30 1  
    32    2   31 1  
    33    5   32 1  
    34    6   33 1  
    35   11   34 1  
    36   11   35 1  
    37   13   36 1  
    38   14   37 1  
    39   14   38 1  
    40   14   39 1  
    41   17   40 1  
    42   19   41 1  
    43   20   42 1  
    44   21   43 1  
@<TRIPOS>SUBSTRUCTURE
     1 SUB1        1 GROUP

