2aoc_ligand
  -I-interpret- 

126125  0  0  0  0  0  0  0  0999 V2000
   23.5570   24.3130   19.6080 C   0  0  0  0  0
   23.2750   24.7250   20.7400 O   0  0  0  0  0
   24.2310   22.9670   19.4260 C   0  0  0  0  0
   23.3250   25.0520   18.5100 N   0  0  0  0  0
   22.7600   26.3740   18.5130 C   0  0  0  0  0
   21.3920   26.4760   17.8210 C   0  0  0  0  0
   20.7600   27.5560   17.9500 O   0  0  0  0  0
   23.7080   27.3720   17.8160 C   0  0  0  0  0
   23.9050   27.0090   16.4570 O   0  0  0  0  0
   25.0950   27.3220   18.5120 C   0  0  0  0  0
   24.5710   26.0400   15.6430 C   0  0  0  0  0
   20.8700   25.4690   17.1720 N   0  0  0  0  0
   19.5340   25.5150   16.5370 C   0  0  0  0  0
   18.6290   24.4790   17.1520 C   0  0  0  0  0
   18.5270   23.3530   16.6680 O   0  0  0  0  0
   19.6230   25.3100   15.0040 C   0  0  0  0  0
   20.7810   26.1310   14.4190 C   0  0  0  0  0
   18.2870   25.5440   14.3550 C   0  0  0  0  0
   20.6370   27.6360   14.4720 C   0  0  0  0  0
   18.0410   24.8270   18.2650 N   0  0  0  0  0
   17.3080   23.8360   19.0690 C   0  0  0  0  0
   15.8110   23.8700   18.8570 C   0  0  0  0  0
   17.6270   24.0460   20.5560 C   0  0  0  0  0
   19.1140   24.0630   20.9220 C   0  0  0  0  0
   19.8820   22.8530   20.4200 C   0  0  0  0  0
   19.3310   21.5400   20.9220 C   0  0  0  0  0
   15.4340   23.7600   17.4780 N   0  3  0  0  0
   14.1590   23.0960   17.2070 C   0  0  0  0  0
   14.2020   21.6520   17.6420 C   0  0  0  0  0
   15.2370   21.0030   17.6870 O   0  0  0  0  0
   13.6830   23.1670   15.7630 C   0  0  0  0  0
   14.6790   22.5100   14.8440 C   0  0  0  0  0
   14.1690   22.4260   13.4410 C   0  0  0  0  0
   15.1590   21.9110   12.4620 C   0  0  0  0  0
   13.0420   21.1090   17.9150 N   0  0  0  0  0
   12.9040   19.6970   18.3040 C   0  0  0  0  0
   11.4810   19.2650   17.9600 C   0  0  0  0  0
   10.4990   19.9420   18.2710 O   0  0  0  0  0
   13.2590   19.4950   19.7640 C   0  0  0  0  0
   13.0610   18.1050   20.3160 C   0  0  0  0  0
   11.6510   17.8570   20.8440 C   0  0  0  0  0
   10.9740   18.7750   21.2350 O   0  0  0  0  0
   11.1870   16.6300   20.8000 N   0  0  0  0  0
   11.3810   18.0520   17.4630 N   0  0  0  0  0
   10.1000   17.4480   17.1380 C   0  0  0  0  0
   10.0400   16.0600   17.7590 C   0  0  0  0  0
   11.0360   15.3260   17.7620 O   0  0  0  0  0
    9.9260   17.3170   15.6310 C   0  0  0  0  0
    9.5630   18.5760   14.8780 C   0  0  0  0  0
    9.3630   18.1660   13.4190 C   0  0  0  0  0
    8.6890   19.1570   12.6180 N   0  0  0  0  0
    8.4920   18.9690   11.3070 C   0  3  0  0  0
    8.8940   17.8850   10.6770 N   0  0  0  0  0
    7.8870   19.9090   10.6320 N   0  0  0  0  0
    8.8050   15.6200   18.2900 N   0  0  0  0  0
   25.1879   22.9677   19.9479 H   0  0  0  0  0
   23.5928   22.1841   19.8358 H   0  0  0  0  0
   24.3951   22.7849   18.3639 H   0  0  0  0  0
   23.5679   24.6446   17.6070 H   0  0  0  0  0
   22.6235   26.6146   19.5673 H   0  0  0  0  0
   23.2640   28.3657   17.8764 H   0  0  0  0  0
   25.5003   26.3127   18.4396 H   0  0  0  0  0
   25.7713   28.0225   18.0222 H   0  0  0  0  0
   24.9837   27.5958   19.5612 H   0  0  0  0  0
   25.6447   26.0922   15.8233 H   0  0  0  0  0
   24.2070   25.0439   15.8949 H   0  0  0  0  0
   24.3671   26.2479   14.5926 H   0  0  0  0  0
   21.4110   24.6073   17.0994 H   0  0  0  0  0
   19.1154   26.5057   16.7143 H   0  0  0  0  0
   19.8652   24.2710   14.7806 H   0  0  0  0  0
   20.8317   25.8700   13.3619 H   0  0  0  0  0
   21.6562   25.8904   15.0226 H   0  0  0  0  0
   17.5589   24.8424   14.7621 H   0  0  0  0  0
   17.9611   26.5647   14.5551 H   0  0  0  0  0
   18.3759   25.3939   13.2790 H   0  0  0  0  0
   19.7488   27.9346   13.9152 H   0  0  0  0  0
   20.5406   27.9542   15.5101 H   0  0  0  0  0
   21.5182   28.0999   14.0288 H   0  0  0  0  0
   18.0903   25.7958   18.5803 H   0  0  0  0  0
   17.6431   22.8536   18.7362 H   0  0  0  0  0
   15.4469   24.8297   19.2238 H   0  0  0  0  0
   15.3828   23.0184   19.3858 H   0  0  0  0  0
   17.1886   23.2013   21.0874 H   0  0  0  0  0
   17.2336   25.0277   20.8198 H   0  0  0  0  0
   19.1812   24.0625   22.0099 H   0  0  0  0  0
   19.5539   24.9442   20.4549 H   0  0  0  0  0
   20.9055   22.9399   20.7847 H   0  0  0  0  0
   19.8076   22.8455   19.3326 H   0  0  0  0  0
   19.3702   21.5236   22.0112 H   0  0  0  0  0
   18.2976   21.4314   20.5927 H   0  0  0  0  0
   19.9288   20.7204   20.5233 H   0  0  0  0  0
   16.1522   23.1899   17.0313 H   0  0  0  0  0
   15.3366   24.7148   17.1327 H   0  0  0  0  0
   13.4337   23.6598   17.7937 H   0  0  0  0  0
   13.5756   24.2134   15.4775 H   0  0  0  0  0
   12.7287   22.6469   15.6796 H   0  0  0  0  0
   14.8607   21.4972   15.2036 H   0  0  0  0  0
   15.5900   23.1085   14.8421 H   0  0  0  0  0
   13.9093   23.4387   13.1326 H   0  0  0  0  0
   13.3300   21.7302   13.4455 H   0  0  0  0  0
   16.0290   22.5675   12.4474 H   0  0  0  0  0
   15.4655   20.9059   12.7517 H   0  0  0  0  0
   14.7068   21.8828   11.4706 H   0  0  0  0  0
   12.2032   21.6864   17.8557 H   0  0  0  0  0
   13.6043   19.0670   17.7556 H   0  0  0  0  0
   12.5911   20.1438   20.3306 H   0  0  0  0  0
   14.3252   19.7052   19.8483 H   0  0  0  0  0
   13.7506   17.9821   21.1511 H   0  0  0  0  0
   13.2355   17.4008   19.5025 H   0  0  0  0  0
   10.2322   16.4347   21.1010 H   0  0  0  0  0
   11.7812   15.8718   20.4648 H   0  0  0  0  0
   12.2331   17.5157   17.2997 H   0  0  0  0  0
    9.3055   18.0838   17.5287 H   0  0  0  0  0
    9.0941   16.6284   15.4835 H   0  0  0  0  0
   10.8952   17.0038   15.2429 H   0  0  0  0  0
   10.3491   19.3256   14.9687 H   0  0  0  0  0
    8.6577   19.0268   15.2845 H   0  0  0  0  0
    8.7405   17.2712   13.4172 H   0  0  0  0  0
   10.3525   18.0191   12.9861 H   0  0  0  0  0
    8.3567   20.0156   13.0571 H   0  0  0  0  0
    9.3767   17.1468   11.1893 H   0  0  0  0  0
    8.7227   17.7834    9.6766 H   0  0  0  0  0
    7.5784   20.7585   11.1049 H   0  0  0  0  0
    7.7230   19.7938    9.6319 H   0  0  0  0  0
    8.7244   14.6828   18.6845 H   0  0  0  0  0
    7.9951   16.2399   18.2784 H   0  0  0  0  0
  1  2  2  0  0  0
  1  3  1  0  0  0
  1  4  1  0  0  0
  4  5  1  0  0  0
  5  6  1  0  0  0
  5  8  1  0  0  0
  6  7  2  0  0  0
  6 12  1  0  0  0
  8  9  1  0  0  0
  8 10  1  0  0  0
  9 11  1  0  0  0
 12 13  1  0  0  0
 13 14  1  0  0  0
 13 16  1  0  0  0
 14 15  2  0  0  0
 14 20  1  0  0  0
 16 17  1  0  0  0
 16 18  1  0  0  0
 17 19  1  0  0  0
 20 21  1  0  0  0
 21 22  1  0  0  0
 21 23  1  0  0  0
 22 27  1  0  0  0
 23 24  1  0  0  0
 24 25  1  0  0  0
 25 26  1  0  0  0
 27 28  1  0  0  0
 28 29  1  0  0  0
 28 31  1  0  0  0
 29 30  2  0  0  0
 29 35  1  0  0  0
 31 32  1  0  0  0
 32 33  1  0  0  0
 33 34  1  0  0  0
 35 36  1  0  0  0
 36 37  1  0  0  0
 36 39  1  0  0  0
 37 38  2  0  0  0
 37 44  1  0  0  0
 39 40  1  0  0  0
 40 41  1  0  0  0
 41 42  2  0  0  0
 41 43  1  0  0  0
 44 45  1  0  0  0
 45 46  1  0  0  0
 45 48  1  0  0  0
 46 47  2  0  0  0
 46 55  1  0  0  0
 48 49  1  0  0  0
 49 50  1  0  0  0
 50 51  1  0  0  0
 51 52  1  0  0  0
 52 53  1  0  0  0
 52 54  1  0  0  0
  3 56  1  0  0  0
  3 57  1  0  0  0
  3 58  1  0  0  0
  4 59  1  0  0  0
  5 60  1  0  0  0
  8 61  1  0  0  0
 10 62  1  0  0  0
 10 63  1  0  0  0
 10 64  1  0  0  0
 11 65  1  0  0  0
 11 66  1  0  0  0
 11 67  1  0  0  0
 12 68  1  0  0  0
 13 69  1  0  0  0
 16 70  1  0  0  0
 17 71  1  0  0  0
 17 72  1  0  0  0
 18 73  1  0  0  0
 18 74  1  0  0  0
 18 75  1  0  0  0
 19 76  1  0  0  0
 19 77  1  0  0  0
 19 78  1  0  0  0
 20 79  1  0  0  0
 21 80  1  0  0  0
 22 81  1  0  0  0
 22 82  1  0  0  0
 23 83  1  0  0  0
 23 84  1  0  0  0
 24 85  1  0  0  0
 24 86  1  0  0  0
 25 87  1  0  0  0
 25 88  1  0  0  0
 26 89  1  0  0  0
 26 90  1  0  0  0
 26 91  1  0  0  0
 27 92  1  0  0  0
 27 93  1  0  0  0
 28 94  1  0  0  0
 31 95  1  0  0  0
 31 96  1  0  0  0
 32 97  1  0  0  0
 32 98  1  0  0  0
 33 99  1  0  0  0
 33100  1  0  0  0
 34101  1  0  0  0
 34102  1  0  0  0
 34103  1  0  0  0
 35104  1  0  0  0
 36105  1  0  0  0
 39106  1  0  0  0
 39107  1  0  0  0
 40108  1  0  0  0
 40109  1  0  0  0
 43110  1  0  0  0
 43111  1  0  0  0
 44112  1  0  0  0
 45113  1  0  0  0
 48114  1  0  0  0
 48115  1  0  0  0
 49116  1  0  0  0
 49117  1  0  0  0
 50118  1  0  0  0
 50119  1  0  0  0
 51120  1  0  0  0
 53121  1  0  0  0
 53122  1  0  0  0
 54123  1  0  0  0
 54124  1  0  0  0
 55125  1  0  0  0
 55126  1  0  0  0
M  END
$$$$
