### 
### Created by X-TOOL on Sun Jun  3 11:51:48 2007
### 

@<TRIPOS>MOLECULE
2aoc_ligand
  126   125     1     0     0
SMALL
GAST_HUCK


@<TRIPOS>ATOM
      1 C          23.5570   24.3130   19.6080 C.2       1 SUB1        0.175
      2 O          23.2750   24.7250   20.7400 O.2       1 SUB1       -0.397
      3 CH3        24.2310   22.9670   19.4260 C.3       1 SUB1        0.026
      4 N          23.3250   25.0520   18.5100 N.am      1 SUB1       -0.264
      5 CA         22.7600   26.3740   18.5130 C.3       1 SUB1        0.157
      6 C          21.3920   26.4760   17.8210 C.2       1 SUB1        0.206
      7 O          20.7600   27.5560   17.9500 O.2       1 SUB1       -0.394
      8 CB         23.7080   27.3720   17.8160 C.3       1 SUB1        0.095
      9 OG1        23.9050   27.0090   16.4570 O.3       1 SUB1       -0.375
     10 CG2        25.0950   27.3220   18.5120 C.3       1 SUB1       -0.034
     11 CD1        24.5710   26.0400   15.6430 C.3       1 SUB1        0.037
     12 N          20.8700   25.4690   17.1720 N.am      1 SUB1       -0.263
     13 CA         19.5340   25.5150   16.5370 C.3       1 SUB1        0.133
     14 C          18.6290   24.4790   17.1520 C.2       1 SUB1        0.202
     15 O          18.5270   23.3530   16.6680 O.2       1 SUB1       -0.394
     16 CB         19.6230   25.3100   15.0040 C.3       1 SUB1       -0.004
     17 CG1        20.7810   26.1310   14.4190 C.3       1 SUB1       -0.049
     18 CG2        18.2870   25.5440   14.3550 C.3       1 SUB1       -0.058
     19 CD1        20.6370   27.6360   14.4720 C.3       1 SUB1       -0.065
     20 N          18.0410   24.8270   18.2650 N.am      1 SUB1       -0.277
     21 CA         17.3080   23.8360   19.0690 C.3       1 SUB1        0.082
     22 C          15.8110   23.8700   18.8570 C.3       1 SUB1       -0.008
     23 CB         17.6270   24.0460   20.5560 C.3       1 SUB1       -0.025
     24 CG         19.1140   24.0630   20.9220 C.3       1 SUB1       -0.051
     25 CD         19.8820   22.8530   20.4200 C.3       1 SUB1       -0.056
     26 CE         19.3310   21.5400   20.9220 C.3       1 SUB1       -0.065
     27 N          15.4340   23.7600   17.4780 N.4       1 SUB1        0.248
     28 CA         14.1590   23.0960   17.2070 C.3       1 SUB1        0.067
     29 C          14.2020   21.6520   17.6420 C.2       1 SUB1        0.227
     30 O          15.2370   21.0030   17.6870 O.2       1 SUB1       -0.391
     31 CB         13.6830   23.1670   15.7630 C.3       1 SUB1        0.008
     32 CG         14.6790   22.5100   14.8440 C.3       1 SUB1       -0.046
     33 CD         14.1690   22.4260   13.4410 C.3       1 SUB1       -0.056
     34 CE         15.1590   21.9110   12.4620 C.3       1 SUB1       -0.065
     35 N          13.0420   21.1090   17.9150 N.am      1 SUB1       -0.261
     36 CA         12.9040   19.6970   18.3040 C.3       1 SUB1        0.133
     37 C          11.4810   19.2650   17.9600 C.2       1 SUB1        0.204
     38 O          10.4990   19.9420   18.2710 O.2       1 SUB1       -0.394
     39 CB         13.2590   19.4950   19.7640 C.3       1 SUB1        0.004
     40 CG         13.0610   18.1050   20.3160 C.3       1 SUB1        0.041
     41 CD         11.6510   17.8570   20.8440 C.2       1 SUB1        0.174
     42 OE1        10.9740   18.7750   21.2350 O.2       1 SUB1       -0.397
     43 NE2        11.1870   16.6300   20.8000 N.am      1 SUB1       -0.301
     44 N          11.3810   18.0520   17.4630 N.am      1 SUB1       -0.264
     45 CA         10.1000   17.4480   17.1380 C.3       1 SUB1        0.131
     46 C          10.0400   16.0600   17.7590 C.2       1 SUB1        0.199
     47 O          11.0360   15.3260   17.7620 O.2       1 SUB1       -0.395
     48 CB          9.9260   17.3170   15.6310 C.3       1 SUB1       -0.009
     49 CG          9.5630   18.5760   14.8780 C.3       1 SUB1       -0.016
     50 CD          9.3630   18.1660   13.4190 C.3       1 SUB1        0.063
     51 NE          8.6890   19.1570   12.6180 N.pl3     1 SUB1       -0.272
     52 CZ          8.4920   18.9690   11.3070 C.cat     1 SUB1        0.288
     53 NH1         8.8940   17.8850   10.6770 N.pl3     1 SUB1       -0.285
     54 NH2         7.8870   19.9090   10.6320 N.pl3     1 SUB1       -0.285
     55 N           8.8050   15.6200   18.2900 N.am      1 SUB1       -0.299
     56 H          25.1879   22.9677   19.9479 H         1 SUB1        0.047
     57 H          23.5928   22.1841   19.8358 H         1 SUB1        0.047
     58 H          24.3951   22.7849   18.3639 H         1 SUB1        0.047
     59 H          23.5679   24.6446   17.6070 H         1 SUB1        0.188
     60 H          22.6235   26.6146   19.5673 H         1 SUB1        0.083
     61 H          23.2640   28.3657   17.8764 H         1 SUB1        0.064
     62 H          25.5003   26.3127   18.4396 H         1 SUB1        0.026
     63 H          25.7713   28.0225   18.0222 H         1 SUB1        0.026
     64 H          24.9837   27.5958   19.5612 H         1 SUB1        0.026
     65 H          25.6447   26.0922   15.8233 H         1 SUB1        0.052
     66 H          24.2070   25.0439   15.8949 H         1 SUB1        0.052
     67 H          24.3671   26.2479   14.5926 H         1 SUB1        0.052
     68 H          21.4110   24.6073   17.0994 H         1 SUB1        0.188
     69 H          19.1154   26.5057   16.7143 H         1 SUB1        0.080
     70 H          19.8652   24.2710   14.7806 H         1 SUB1        0.034
     71 H          20.8317   25.8700   13.3619 H         1 SUB1        0.027
     72 H          21.6562   25.8904   15.0226 H         1 SUB1        0.027
     73 H          17.5589   24.8424   14.7621 H         1 SUB1        0.023
     74 H          17.9611   26.5647   14.5551 H         1 SUB1        0.023
     75 H          18.3759   25.3939   13.2790 H         1 SUB1        0.023
     76 H          19.7488   27.9346   13.9152 H         1 SUB1        0.023
     77 H          20.5406   27.9542   15.5101 H         1 SUB1        0.023
     78 H          21.5182   28.0999   14.0288 H         1 SUB1        0.023
     79 H          18.0903   25.7958   18.5803 H         1 SUB1        0.186
     80 H          17.6431   22.8536   18.7362 H         1 SUB1        0.061
     81 H          15.4469   24.8297   19.2238 H         1 SUB1        0.084
     82 H          15.3828   23.0184   19.3858 H         1 SUB1        0.084
     83 H          17.1886   23.2013   21.0874 H         1 SUB1        0.029
     84 H          17.2336   25.0277   20.8198 H         1 SUB1        0.029
     85 H          19.1812   24.0625   22.0099 H         1 SUB1        0.027
     86 H          19.5539   24.9442   20.4549 H         1 SUB1        0.027
     87 H          20.9055   22.9399   20.7847 H         1 SUB1        0.026
     88 H          19.8076   22.8455   19.3326 H         1 SUB1        0.026
     89 H          19.3702   21.5236   22.0112 H         1 SUB1        0.023
     90 H          18.2976   21.4314   20.5927 H         1 SUB1        0.023
     91 H          19.9288   20.7204   20.5233 H         1 SUB1        0.023
     92 H          16.1522   23.1899   17.0313 H         1 SUB1        0.204
     93 H          15.3366   24.7148   17.1327 H         1 SUB1        0.204
     94 H          13.4337   23.6598   17.7937 H         1 SUB1        0.110
     95 H          13.5756   24.2134   15.4775 H         1 SUB1        0.035
     96 H          12.7287   22.6469   15.6796 H         1 SUB1        0.035
     97 H          14.8607   21.4972   15.2036 H         1 SUB1        0.027
     98 H          15.5900   23.1085   14.8421 H         1 SUB1        0.027
     99 H          13.9093   23.4387   13.1326 H         1 SUB1        0.026
    100 H          13.3300   21.7302   13.4455 H         1 SUB1        0.026
    101 H          16.0290   22.5675   12.4474 H         1 SUB1        0.023
    102 H          15.4655   20.9059   12.7517 H         1 SUB1        0.023
    103 H          14.7068   21.8828   11.4706 H         1 SUB1        0.023
    104 H          12.2032   21.6864   17.8557 H         1 SUB1        0.189
    105 H          13.6043   19.0670   17.7556 H         1 SUB1        0.080
    106 H          12.5911   20.1438   20.3306 H         1 SUB1        0.034
    107 H          14.3252   19.7052   19.8483 H         1 SUB1        0.034
    108 H          13.7506   17.9821   21.1511 H         1 SUB1        0.050
    109 H          13.2355   17.4008   19.5025 H         1 SUB1        0.050
    110 H          10.2322   16.4347   21.1010 H         1 SUB1        0.181
    111 H          11.7812   15.8718   20.4648 H         1 SUB1        0.181
    112 H          12.2331   17.5157   17.2997 H         1 SUB1        0.188
    113 H           9.3055   18.0838   17.5287 H         1 SUB1        0.080
    114 H           9.0941   16.6284   15.4835 H         1 SUB1        0.031
    115 H          10.8952   17.0038   15.2429 H         1 SUB1        0.031
    116 H          10.3491   19.3256   14.9687 H         1 SUB1        0.030
    117 H           8.6577   19.0268   15.2845 H         1 SUB1        0.030
    118 H           8.7405   17.2712   13.4172 H         1 SUB1        0.069
    119 H          10.3525   18.0191   12.9861 H         1 SUB1        0.069
    120 H           8.3567   20.0156   13.0571 H         1 SUB1        0.264
    121 H           9.3767   17.1468   11.1893 H         1 SUB1        0.262
    122 H           8.7227   17.7834    9.6766 H         1 SUB1        0.262
    123 H           7.5784   20.7585   11.1049 H         1 SUB1        0.262
    124 H           7.7230   19.7938    9.6319 H         1 SUB1        0.262
    125 H           8.7244   14.6828   18.6845 H         1 SUB1        0.182
    126 H           7.9951   16.2399   18.2784 H         1 SUB1        0.182
@<TRIPOS>BOND
     1    1    2 2  
     2    1    3 1  
     3    1    4 am 
     4    4    5 1  
     5    5    6 1  
     6    5    8 1  
     7    6    7 2  
     8    6   12 am 
     9    8    9 1  
    10    8   10 1  
    11    9   11 1  
    12   12   13 1  
    13   13   14 1  
    14   13   16 1  
    15   14   15 2  
    16   14   20 am 
    17   16   17 1  
    18   16   18 1  
    19   17   19 1  
    20   20   21 1  
    21   21   22 1  
    22   21   23 1  
    23   22   27 1  
    24   23   24 1  
    25   24   25 1  
    26   25   26 1  
    27   27   28 1  
    28   28   29 1  
    29   28   31 1  
    30   29   30 2  
    31   29   35 am 
    32   31   32 1  
    33   32   33 1  
    34   33   34 1  
    35   35   36 1  
    36   36   37 1  
    37   36   39 1  
    38   37   38 2  
    39   37   44 am 
    40   39   40 1  
    41   40   41 1  
    42   41   42 2  
    43   41   43 am 
    44   44   45 1  
    45   45   46 1  
    46   45   48 1  
    47   46   47 2  
    48   46   55 am 
    49   48   49 1  
    50   49   50 1  
    51   50   51 1  
    52   51   52 1  
    53   52   53 1  
    54   52   54 1  
    55    3   56 1  
    56    3   57 1  
    57    3   58 1  
    58    4   59 1  
    59    5   60 1  
    60    8   61 1  
    61   10   62 1  
    62   10   63 1  
    63   10   64 1  
    64   11   65 1  
    65   11   66 1  
    66   11   67 1  
    67   12   68 1  
    68   13   69 1  
    69   16   70 1  
    70   17   71 1  
    71   17   72 1  
    72   18   73 1  
    73   18   74 1  
    74   18   75 1  
    75   19   76 1  
    76   19   77 1  
    77   19   78 1  
    78   20   79 1  
    79   21   80 1  
    80   22   81 1  
    81   22   82 1  
    82   23   83 1  
    83   23   84 1  
    84   24   85 1  
    85   24   86 1  
    86   25   87 1  
    87   25   88 1  
    88   26   89 1  
    89   26   90 1  
    90   26   91 1  
    91   27   92 1  
    92   27   93 1  
    93   28   94 1  
    94   31   95 1  
    95   31   96 1  
    96   32   97 1  
    97   32   98 1  
    98   33   99 1  
    99   33  100 1  
   100   34  101 1  
   101   34  102 1  
   102   34  103 1  
   103   35  104 1  
   104   36  105 1  
   105   39  106 1  
   106   39  107 1  
   107   40  108 1  
   108   40  109 1  
   109   43  110 1  
   110   43  111 1  
   111   44  112 1  
   112   45  113 1  
   113   48  114 1  
   114   48  115 1  
   115   49  116 1  
   116   49  117 1  
   117   50  118 1  
   118   50  119 1  
   119   51  120 1  
   120   53  121 1  
   121   53  122 1  
   122   54  123 1  
   123   54  124 1  
   124   55  125 1  
   125   55  126 1  
@<TRIPOS>SUBSTRUCTURE
     1 SUB1        1 GROUP

