### 
### Created by X-TOOL on Sun Jun  3 12:01:54 2007
### 

@<TRIPOS>MOLECULE
2euk_ligand
  148   148     1     0     0
SMALL
GAST_HUCK


@<TRIPOS>ATOM
      1 C1         22.9440    0.3820   18.4070 C.3       1 SUB1        0.188
      2 C2         22.3620    1.7500   18.7720 C.3       1 SUB1        0.134
      3 C3         22.9670    2.8400   17.8780 C.3       1 SUB1        0.114
      4 C4         24.4950    2.7710   17.9010 C.3       1 SUB1        0.112
      5 C5         24.9290    1.3390   17.5850 C.3       1 SUB1        0.113
      6 C6         26.4600    1.1890   17.5770 C.3       1 SUB1        0.073
      7 O1         22.4330   -0.6140   19.2390 O.3       1 SUB1       -0.346
      8 O2         20.9690    1.6330   18.5890 O.3       1 SUB1       -0.384
      9 O3         22.5800    4.1150   18.3260 O.3       1 SUB1       -0.386
     10 O4         24.9290    3.2090   19.1820 O.3       1 SUB1       -0.387
     11 O5         24.3610    0.3760   18.4500 O.3       1 SUB1       -0.340
     12 O6         26.7980   -0.0570   17.0080 O.3       1 SUB1       -0.392
     13 C1         22.5430   -1.9210   18.9120 C.3       1 SUB1        0.078
     14 C2         21.4580   -2.7260   19.6430 C.3       1 SUB1        0.098
     15 N2         20.2080   -2.1710   19.1540 N.am      1 SUB1       -0.278
     16 C3         21.6100   -2.7330   21.1680 C.3       1 SUB1        0.098
     17 O3         22.9700   -3.1580   21.4710 O.3       1 SUB1       -0.380
     18 C4         20.5050   -3.4670   21.9490 C.2       1 SUB1       -0.068
     19 C5         19.6100   -2.9400   22.8050 C.2       1 SUB1       -0.096
     20 C6         18.8220   -3.6810   23.9110 C.3       1 SUB1       -0.036
     21 C7         19.5360   -4.0160   25.2410 C.3       1 SUB1       -0.046
     22 C8         20.2940   -5.3550   25.2850 C.3       1 SUB1       -0.052
     23 C9         21.4780   -5.5950   26.2390 C.3       1 SUB1       -0.053
     24 C10        21.1910   -6.2560   27.5870 C.3       1 SUB1       -0.053
     25 C11        22.3290   -6.2750   28.6070 C.3       1 SUB1       -0.053
     26 C12        21.8130   -6.2850   30.0520 C.3       1 SUB1       -0.053
     27 C13        22.7550   -7.0200   31.0020 C.3       1 SUB1       -0.053
     28 C14        22.2460   -6.9310   32.4370 C.3       1 SUB1       -0.053
     29 C15        22.9400   -7.9170   33.3740 C.3       1 SUB1       -0.053
     30 C16        22.0390   -8.4240   34.5050 C.3       1 SUB1       -0.053
     31 C17        21.8510   -7.4530   35.6670 C.3       1 SUB1       -0.056
     32 C18        23.0180   -7.4760   36.6280 C.3       1 SUB1       -0.065
     33 O1         19.2810   -4.0820   18.4610 O.2       1 SUB1       -0.397
     34 C1         19.1730   -2.6640   18.6320 C.2       1 SUB1        0.176
     35 C2         17.7300   -2.2560   18.3480 C.3       1 SUB1        0.037
     36 C3         16.8080   -2.6880   19.4810 C.3       1 SUB1       -0.036
     37 C4         15.3860   -2.4750   18.9610 C.3       1 SUB1       -0.051
     38 C5         14.3700   -3.2530   19.7830 C.3       1 SUB1       -0.053
     39 C6         13.0000   -3.2600   19.0950 C.3       1 SUB1       -0.053
     40 C7         11.9520   -3.7930   20.0560 C.3       1 SUB1       -0.053
     41 C8         12.4310   -5.1340   20.5860 C.3       1 SUB1       -0.053
     42 C9         11.4350   -5.6630   21.6070 C.3       1 SUB1       -0.053
     43 C10        11.9150   -7.0470   22.0520 C.3       1 SUB1       -0.053
     44 C11        11.1970   -7.5120   23.3150 C.3       1 SUB1       -0.053
     45 C12        10.8680   -8.9990   23.2220 C.3       1 SUB1       -0.052
     46 C13        10.1790   -9.5630   24.4630 C.3       1 SUB1       -0.046
     47 C14         8.7170   -9.1460   24.6500 C.3       1 SUB1       -0.036
     48 C15         7.8080   -9.5870   23.5030 C.2       1 SUB1       -0.099
     49 C16         6.8440   -8.8750   22.9090 C.2       1 SUB1       -0.099
     50 C17         6.3930   -7.4500   23.1970 C.3       1 SUB1       -0.036
     51 C18         6.5540   -6.5960   21.9490 C.3       1 SUB1       -0.046
     52 C19         5.9860   -5.1940   22.1450 C.3       1 SUB1       -0.052
     53 C20         6.6160   -4.2000   21.1770 C.3       1 SUB1       -0.053
     54 C21         5.5630   -3.2700   20.5940 C.3       1 SUB1       -0.053
     55 C22         5.5360   -1.8910   21.2410 C.3       1 SUB1       -0.053
     56 C23         4.2800   -1.1540   20.7920 C.3       1 SUB1       -0.056
     57 C24         4.6250    0.0250   19.9050 C.3       1 SUB1       -0.065
     58 H          22.6438    0.1739   17.3800 H         1 SUB1        0.094
     59 H          22.5923    2.0371   19.7980 H         1 SUB1        0.067
     60 H          22.6029    2.6726   16.8643 H         1 SUB1        0.065
     61 H          24.9486    3.4165   17.1489 H         1 SUB1        0.065
     62 H          24.5474    1.1448   16.5826 H         1 SUB1        0.065
     63 H          26.8392    1.2414   18.5976 H         1 SUB1        0.058
     64 H          26.9045    1.9930   16.9904 H         1 SUB1        0.058
     65 H          20.6287    0.9433   19.1636 H         1 SUB1        0.210
     66 H          22.9042    4.2511   19.2193 H         1 SUB1        0.210
     67 H          24.6312    4.1097   19.3288 H         1 SUB1        0.210
     68 H          26.4063   -0.7621   17.5286 H         1 SUB1        0.209
     69 H          23.5266   -2.2871   19.2061 H         1 SUB1        0.059
     70 H          22.4180   -2.0375   17.8355 H         1 SUB1        0.059
     71 H          21.5232   -3.7924   19.4271 H         1 SUB1        0.062
     72 H          20.1569   -1.1574   19.2559 H         1 SUB1        0.186
     73 H          21.4554   -1.7198   21.5390 H         1 SUB1        0.074
     74 H          23.0951   -3.1720   22.4227 H         1 SUB1        0.213
     75 H          20.4395   -4.5433   21.7895 H         1 SUB1        0.048
     76 H          19.4190   -1.8713   22.7081 H         1 SUB1        0.045
     77 H          18.5685   -4.6479   23.4763 H         1 SUB1        0.039
     78 H          18.0170   -3.0001   24.1874 H         1 SUB1        0.039
     79 H          18.7547   -4.0828   25.9981 H         1 SUB1        0.029
     80 H          20.2838   -3.2372   25.3903 H         1 SUB1        0.029
     81 H          20.7456   -5.4250   24.2954 H         1 SUB1        0.027
     82 H          19.5408   -6.0632   25.6302 H         1 SUB1        0.027
     83 H          21.8614   -4.6033   26.4791 H         1 SUB1        0.026
     84 H          22.1376   -6.2853   25.7132 H         1 SUB1        0.026
     85 H          20.9725   -7.3007   27.3656 H         1 SUB1        0.026
     86 H          20.3932   -5.6691   28.0423 H         1 SUB1        0.026
     87 H          22.9253   -5.3735   28.4663 H         1 SUB1        0.026
     88 H          22.9109   -7.1830   28.4487 H         1 SUB1        0.026
     89 H          20.8529   -6.8009   30.0634 H         1 SUB1        0.026
     90 H          21.7339   -5.2513   30.3887 H         1 SUB1        0.026
     91 H          23.7416   -6.5597   30.9477 H         1 SUB1        0.026
     92 H          22.8049   -8.0687   30.7091 H         1 SUB1        0.026
     93 H          21.1826   -7.1703   32.4292 H         1 SUB1        0.026
     94 H          22.4502   -5.9243   32.8015 H         1 SUB1        0.026
     95 H          23.7802   -7.3962   33.8333 H         1 SUB1        0.026
     96 H          23.2361   -8.7810   32.7791 H         1 SUB1        0.026
     97 H          22.5185   -9.3135   34.9136 H         1 SUB1        0.026
     98 H          21.0529   -8.5888   34.0709 H         1 SUB1        0.026
     99 H          20.9562   -7.7495   36.2143 H         1 SUB1        0.026
    100 H          21.7702   -6.4463   35.2570 H         1 SUB1        0.026
    101 H          23.1282   -8.4792   37.0398 H         1 SUB1        0.023
    102 H          23.9289   -7.1973   36.0982 H         1 SUB1        0.023
    103 H          22.8353   -6.7681   37.4364 H         1 SUB1        0.023
    104 H          17.4041   -2.7406   17.4276 H         1 SUB1        0.050
    105 H          17.6851   -1.1709   18.2548 H         1 SUB1        0.050
    106 H          16.9915   -2.1085   20.3858 H         1 SUB1        0.029
    107 H          16.9785   -3.7284   19.7576 H         1 SUB1        0.029
    108 H          15.3387   -2.8269   17.9304 H         1 SUB1        0.027
    109 H          15.1477   -1.4137   19.0318 H         1 SUB1        0.027
    110 H          14.2700   -2.7771   20.7585 H         1 SUB1        0.026
    111 H          14.7159   -4.2815   19.8858 H         1 SUB1        0.026
    112 H          13.0406   -3.8980   18.2122 H         1 SUB1        0.026
    113 H          12.7376   -2.2444   18.7988 H         1 SUB1        0.026
    114 H          10.9985   -3.9127   19.5415 H         1 SUB1        0.026
    115 H          11.8096   -3.0939   20.8801 H         1 SUB1        0.026
    116 H          13.4047   -5.0098   21.0599 H         1 SUB1        0.026
    117 H          12.5146   -5.8412   19.7608 H         1 SUB1        0.026
    118 H          10.4401   -5.7301   21.1668 H         1 SUB1        0.026
    119 H          11.3745   -4.9896   22.4620 H         1 SUB1        0.026
    120 H          12.9825   -6.9890   22.2646 H         1 SUB1        0.026
    121 H          11.7023   -7.7581   21.2537 H         1 SUB1        0.026
    122 H          10.2700   -6.9492   23.4243 H         1 SUB1        0.026
    123 H          11.8460   -7.3448   24.1746 H         1 SUB1        0.026
    124 H          11.8118   -9.5319   23.1065 H         1 SUB1        0.027
    125 H          10.1808   -9.1259   22.3855 H         1 SUB1        0.027
    126 H          10.7250   -9.1777   25.3241 H         1 SUB1        0.029
    127 H          10.1817  -10.6476   24.3544 H         1 SUB1        0.029
    128 H           8.6888   -8.0571   24.6913 H         1 SUB1        0.039
    129 H           8.3531   -9.6236   25.5597 H         1 SUB1        0.039
    130 H           7.9632  -10.5978   23.1258 H         1 SUB1        0.045
    131 H           6.3078   -9.3852   22.1089 H         1 SUB1        0.045
    132 H           7.0029   -7.0343   23.9991 H         1 SUB1        0.039
    133 H           5.3447   -7.4574   23.4957 H         1 SUB1        0.039
    134 H           6.0113   -7.0747   21.1339 H         1 SUB1        0.029
    135 H           7.6180   -6.5071   21.7296 H         1 SUB1        0.029
    136 H           6.2030   -4.8713   23.1633 H         1 SUB1        0.027
    137 H           4.9124   -5.2259   21.9592 H         1 SUB1        0.027
    138 H           7.0857   -4.7523   20.3631 H         1 SUB1        0.026
    139 H           7.3515   -3.6031   21.7162 H         1 SUB1        0.026
    140 H           4.5903   -3.7301   20.7679 H         1 SUB1        0.026
    141 H           5.8004   -3.1301   19.5394 H         1 SUB1        0.026
    142 H           6.4191   -1.3274   20.9401 H         1 SUB1        0.026
    143 H           5.5319   -1.9951   22.3260 H         1 SUB1        0.026
    144 H           3.7587   -0.7846   21.6751 H         1 SUB1        0.026
    145 H           3.6548   -1.8444   20.2259 H         1 SUB1        0.026
    146 H           5.2585    0.7198   20.4564 H         1 SUB1        0.023
    147 H           5.1557   -0.3297   19.0215 H         1 SUB1        0.023
    148 H           3.7081    0.5301   19.6013 H         1 SUB1        0.023
@<TRIPOS>BOND
     1    1    2 1  
     2    1    7 1  
     3    1   11 1  
     4    2    3 1  
     5    2    8 1  
     6    3    4 1  
     7    3    9 1  
     8    4    5 1  
     9    4   10 1  
    10    5    6 1  
    11    5   11 1  
    12    6   12 1  
    13    7   13 1  
    14   13   14 1  
    15   14   15 1  
    16   14   16 1  
    17   15   34 am 
    18   16   17 1  
    19   16   18 1  
    20   18   19 2  
    21   19   20 1  
    22   20   21 1  
    23   21   22 1  
    24   22   23 1  
    25   23   24 1  
    26   24   25 1  
    27   25   26 1  
    28   26   27 1  
    29   27   28 1  
    30   28   29 1  
    31   29   30 1  
    32   30   31 1  
    33   31   32 1  
    34   34   33 2  
    35   34   35 1  
    36   35   36 1  
    37   36   37 1  
    38   37   38 1  
    39   38   39 1  
    40   39   40 1  
    41   40   41 1  
    42   41   42 1  
    43   42   43 1  
    44   43   44 1  
    45   44   45 1  
    46   45   46 1  
    47   46   47 1  
    48   47   48 1  
    49   48   49 2  
    50   49   50 1  
    51   50   51 1  
    52   51   52 1  
    53   52   53 1  
    54   53   54 1  
    55   54   55 1  
    56   55   56 1  
    57   56   57 1  
    58    1   58 1  
    59    2   59 1  
    60    3   60 1  
    61    4   61 1  
    62    5   62 1  
    63    6   63 1  
    64    6   64 1  
    65    8   65 1  
    66    9   66 1  
    67   10   67 1  
    68   12   68 1  
    69   13   69 1  
    70   13   70 1  
    71   14   71 1  
    72   15   72 1  
    73   16   73 1  
    74   17   74 1  
    75   18   75 1  
    76   19   76 1  
    77   20   77 1  
    78   20   78 1  
    79   21   79 1  
    80   21   80 1  
    81   22   81 1  
    82   22   82 1  
    83   23   83 1  
    84   23   84 1  
    85   24   85 1  
    86   24   86 1  
    87   25   87 1  
    88   25   88 1  
    89   26   89 1  
    90   26   90 1  
    91   27   91 1  
    92   27   92 1  
    93   28   93 1  
    94   28   94 1  
    95   29   95 1  
    96   29   96 1  
    97   30   97 1  
    98   30   98 1  
    99   31   99 1  
   100   31  100 1  
   101   32  101 1  
   102   32  102 1  
   103   32  103 1  
   104   35  104 1  
   105   35  105 1  
   106   36  106 1  
   107   36  107 1  
   108   37  108 1  
   109   37  109 1  
   110   38  110 1  
   111   38  111 1  
   112   39  112 1  
   113   39  113 1  
   114   40  114 1  
   115   40  115 1  
   116   41  116 1  
   117   41  117 1  
   118   42  118 1  
   119   42  119 1  
   120   43  120 1  
   121   43  121 1  
   122   44  122 1  
   123   44  123 1  
   124   45  124 1  
   125   45  125 1  
   126   46  126 1  
   127   46  127 1  
   128   47  128 1  
   129   47  129 1  
   130   48  130 1  
   131   49  131 1  
   132   50  132 1  
   133   50  133 1  
   134   51  134 1  
   135   51  135 1  
   136   52  136 1  
   137   52  137 1  
   138   53  138 1  
   139   53  139 1  
   140   54  140 1  
   141   54  141 1  
   142   55  142 1  
   143   55  143 1  
   144   56  144 1  
   145   56  145 1  
   146   57  146 1  
   147   57  147 1  
   148   57  148 1  
@<TRIPOS>SUBSTRUCTURE
     1 SUB1        1 GROUP

