2euk_ligand
  -I-interpret- 

148148  0  0  0  0  0  0  0  0999 V2000
   22.9440    0.3820   18.4070 C   0  0  0  0  0
   22.3620    1.7500   18.7720 C   0  0  0  0  0
   22.9670    2.8400   17.8780 C   0  0  0  0  0
   24.4950    2.7710   17.9010 C   0  0  0  0  0
   24.9290    1.3390   17.5850 C   0  0  0  0  0
   26.4600    1.1890   17.5770 C   0  0  0  0  0
   22.4330   -0.6140   19.2390 O   0  0  0  0  0
   20.9690    1.6330   18.5890 O   0  0  0  0  0
   22.5800    4.1150   18.3260 O   0  0  0  0  0
   24.9290    3.2090   19.1820 O   0  0  0  0  0
   24.3610    0.3760   18.4500 O   0  0  0  0  0
   26.7980   -0.0570   17.0080 O   0  0  0  0  0
   22.5430   -1.9210   18.9120 C   0  0  0  0  0
   21.4580   -2.7260   19.6430 C   0  0  0  0  0
   20.2080   -2.1710   19.1540 N   0  0  0  0  0
   21.6100   -2.7330   21.1680 C   0  0  0  0  0
   22.9700   -3.1580   21.4710 O   0  0  0  0  0
   20.5050   -3.4670   21.9490 C   0  0  0  0  0
   19.6100   -2.9400   22.8050 C   0  0  0  0  0
   18.8220   -3.6810   23.9110 C   0  0  0  0  0
   19.5360   -4.0160   25.2410 C   0  0  0  0  0
   20.2940   -5.3550   25.2850 C   0  0  0  0  0
   21.4780   -5.5950   26.2390 C   0  0  0  0  0
   21.1910   -6.2560   27.5870 C   0  0  0  0  0
   22.3290   -6.2750   28.6070 C   0  0  0  0  0
   21.8130   -6.2850   30.0520 C   0  0  0  0  0
   22.7550   -7.0200   31.0020 C   0  0  0  0  0
   22.2460   -6.9310   32.4370 C   0  0  0  0  0
   22.9400   -7.9170   33.3740 C   0  0  0  0  0
   22.0390   -8.4240   34.5050 C   0  0  0  0  0
   21.8510   -7.4530   35.6670 C   0  0  0  0  0
   23.0180   -7.4760   36.6280 C   0  0  0  0  0
   19.2810   -4.0820   18.4610 O   0  0  0  0  0
   19.1730   -2.6640   18.6320 C   0  0  0  0  0
   17.7300   -2.2560   18.3480 C   0  0  0  0  0
   16.8080   -2.6880   19.4810 C   0  0  0  0  0
   15.3860   -2.4750   18.9610 C   0  0  0  0  0
   14.3700   -3.2530   19.7830 C   0  0  0  0  0
   13.0000   -3.2600   19.0950 C   0  0  0  0  0
   11.9520   -3.7930   20.0560 C   0  0  0  0  0
   12.4310   -5.1340   20.5860 C   0  0  0  0  0
   11.4350   -5.6630   21.6070 C   0  0  0  0  0
   11.9150   -7.0470   22.0520 C   0  0  0  0  0
   11.1970   -7.5120   23.3150 C   0  0  0  0  0
   10.8680   -8.9990   23.2220 C   0  0  0  0  0
   10.1790   -9.5630   24.4630 C   0  0  0  0  0
    8.7170   -9.1460   24.6500 C   0  0  0  0  0
    7.8080   -9.5870   23.5030 C   0  0  0  0  0
    6.8440   -8.8750   22.9090 C   0  0  0  0  0
    6.3930   -7.4500   23.1970 C   0  0  0  0  0
    6.5540   -6.5960   21.9490 C   0  0  0  0  0
    5.9860   -5.1940   22.1450 C   0  0  0  0  0
    6.6160   -4.2000   21.1770 C   0  0  0  0  0
    5.5630   -3.2700   20.5940 C   0  0  0  0  0
    5.5360   -1.8910   21.2410 C   0  0  0  0  0
    4.2800   -1.1540   20.7920 C   0  0  0  0  0
    4.6250    0.0250   19.9050 C   0  0  0  0  0
   22.6438    0.1739   17.3800 H   0  0  0  0  0
   22.5923    2.0371   19.7980 H   0  0  0  0  0
   22.6029    2.6726   16.8643 H   0  0  0  0  0
   24.9486    3.4165   17.1489 H   0  0  0  0  0
   24.5474    1.1448   16.5826 H   0  0  0  0  0
   26.8392    1.2414   18.5976 H   0  0  0  0  0
   26.9045    1.9930   16.9904 H   0  0  0  0  0
   20.6287    0.9433   19.1636 H   0  0  0  0  0
   22.9042    4.2511   19.2193 H   0  0  0  0  0
   24.6312    4.1097   19.3288 H   0  0  0  0  0
   26.4063   -0.7621   17.5286 H   0  0  0  0  0
   23.5266   -2.2871   19.2061 H   0  0  0  0  0
   22.4180   -2.0375   17.8355 H   0  0  0  0  0
   21.5232   -3.7924   19.4271 H   0  0  0  0  0
   20.1569   -1.1574   19.2559 H   0  0  0  0  0
   21.4554   -1.7198   21.5390 H   0  0  0  0  0
   23.0951   -3.1720   22.4227 H   0  0  0  0  0
   20.4395   -4.5433   21.7895 H   0  0  0  0  0
   19.4190   -1.8713   22.7081 H   0  0  0  0  0
   18.5685   -4.6479   23.4763 H   0  0  0  0  0
   18.0170   -3.0001   24.1874 H   0  0  0  0  0
   18.7547   -4.0828   25.9981 H   0  0  0  0  0
   20.2838   -3.2372   25.3903 H   0  0  0  0  0
   20.7456   -5.4250   24.2954 H   0  0  0  0  0
   19.5408   -6.0632   25.6302 H   0  0  0  0  0
   21.8614   -4.6033   26.4791 H   0  0  0  0  0
   22.1376   -6.2853   25.7132 H   0  0  0  0  0
   20.9725   -7.3007   27.3656 H   0  0  0  0  0
   20.3932   -5.6691   28.0423 H   0  0  0  0  0
   22.9253   -5.3735   28.4663 H   0  0  0  0  0
   22.9109   -7.1830   28.4487 H   0  0  0  0  0
   20.8529   -6.8009   30.0634 H   0  0  0  0  0
   21.7339   -5.2513   30.3887 H   0  0  0  0  0
   23.7416   -6.5597   30.9477 H   0  0  0  0  0
   22.8049   -8.0687   30.7091 H   0  0  0  0  0
   21.1826   -7.1703   32.4292 H   0  0  0  0  0
   22.4502   -5.9243   32.8015 H   0  0  0  0  0
   23.7802   -7.3962   33.8333 H   0  0  0  0  0
   23.2361   -8.7810   32.7791 H   0  0  0  0  0
   22.5185   -9.3135   34.9136 H   0  0  0  0  0
   21.0529   -8.5888   34.0709 H   0  0  0  0  0
   20.9562   -7.7495   36.2143 H   0  0  0  0  0
   21.7702   -6.4463   35.2570 H   0  0  0  0  0
   23.1282   -8.4792   37.0398 H   0  0  0  0  0
   23.9289   -7.1973   36.0982 H   0  0  0  0  0
   22.8353   -6.7681   37.4364 H   0  0  0  0  0
   17.4041   -2.7406   17.4276 H   0  0  0  0  0
   17.6851   -1.1709   18.2548 H   0  0  0  0  0
   16.9915   -2.1085   20.3858 H   0  0  0  0  0
   16.9785   -3.7284   19.7576 H   0  0  0  0  0
   15.3387   -2.8269   17.9304 H   0  0  0  0  0
   15.1477   -1.4137   19.0318 H   0  0  0  0  0
   14.2700   -2.7771   20.7585 H   0  0  0  0  0
   14.7159   -4.2815   19.8858 H   0  0  0  0  0
   13.0406   -3.8980   18.2122 H   0  0  0  0  0
   12.7376   -2.2444   18.7988 H   0  0  0  0  0
   10.9985   -3.9127   19.5415 H   0  0  0  0  0
   11.8096   -3.0939   20.8801 H   0  0  0  0  0
   13.4047   -5.0098   21.0599 H   0  0  0  0  0
   12.5146   -5.8412   19.7608 H   0  0  0  0  0
   10.4401   -5.7301   21.1668 H   0  0  0  0  0
   11.3745   -4.9896   22.4620 H   0  0  0  0  0
   12.9825   -6.9890   22.2646 H   0  0  0  0  0
   11.7023   -7.7581   21.2537 H   0  0  0  0  0
   10.2700   -6.9492   23.4243 H   0  0  0  0  0
   11.8460   -7.3448   24.1746 H   0  0  0  0  0
   11.8118   -9.5319   23.1065 H   0  0  0  0  0
   10.1808   -9.1259   22.3855 H   0  0  0  0  0
   10.7250   -9.1777   25.3241 H   0  0  0  0  0
   10.1817  -10.6476   24.3544 H   0  0  0  0  0
    8.6888   -8.0571   24.6913 H   0  0  0  0  0
    8.3531   -9.6236   25.5597 H   0  0  0  0  0
    7.9632  -10.5978   23.1258 H   0  0  0  0  0
    6.3078   -9.3852   22.1089 H   0  0  0  0  0
    7.0029   -7.0343   23.9991 H   0  0  0  0  0
    5.3447   -7.4574   23.4957 H   0  0  0  0  0
    6.0113   -7.0747   21.1339 H   0  0  0  0  0
    7.6180   -6.5071   21.7296 H   0  0  0  0  0
    6.2030   -4.8713   23.1633 H   0  0  0  0  0
    4.9124   -5.2259   21.9592 H   0  0  0  0  0
    7.0857   -4.7523   20.3631 H   0  0  0  0  0
    7.3515   -3.6031   21.7162 H   0  0  0  0  0
    4.5903   -3.7301   20.7679 H   0  0  0  0  0
    5.8004   -3.1301   19.5394 H   0  0  0  0  0
    6.4191   -1.3274   20.9401 H   0  0  0  0  0
    5.5319   -1.9951   22.3260 H   0  0  0  0  0
    3.7587   -0.7846   21.6751 H   0  0  0  0  0
    3.6548   -1.8444   20.2259 H   0  0  0  0  0
    5.2585    0.7198   20.4564 H   0  0  0  0  0
    5.1557   -0.3297   19.0215 H   0  0  0  0  0
    3.7081    0.5301   19.6013 H   0  0  0  0  0
  1  2  1  0  0  0
  1  7  1  0  0  0
  1 11  1  0  0  0
  2  3  1  0  0  0
  2  8  1  0  0  0
  3  4  1  0  0  0
  3  9  1  0  0  0
  4  5  1  0  0  0
  4 10  1  0  0  0
  5  6  1  0  0  0
  5 11  1  0  0  0
  6 12  1  0  0  0
  7 13  1  0  0  0
 13 14  1  0  0  0
 14 15  1  0  0  0
 14 16  1  0  0  0
 15 34  1  0  0  0
 16 17  1  0  0  0
 16 18  1  0  0  0
 18 19  2  0  0  0
 19 20  1  0  0  0
 20 21  1  0  0  0
 21 22  1  0  0  0
 22 23  1  0  0  0
 23 24  1  0  0  0
 24 25  1  0  0  0
 25 26  1  0  0  0
 26 27  1  0  0  0
 27 28  1  0  0  0
 28 29  1  0  0  0
 29 30  1  0  0  0
 30 31  1  0  0  0
 31 32  1  0  0  0
 34 33  2  0  0  0
 34 35  1  0  0  0
 35 36  1  0  0  0
 36 37  1  0  0  0
 37 38  1  0  0  0
 38 39  1  0  0  0
 39 40  1  0  0  0
 40 41  1  0  0  0
 41 42  1  0  0  0
 42 43  1  0  0  0
 43 44  1  0  0  0
 44 45  1  0  0  0
 45 46  1  0  0  0
 46 47  1  0  0  0
 47 48  1  0  0  0
 48 49  2  0  0  0
 49 50  1  0  0  0
 50 51  1  0  0  0
 51 52  1  0  0  0
 52 53  1  0  0  0
 53 54  1  0  0  0
 54 55  1  0  0  0
 55 56  1  0  0  0
 56 57  1  0  0  0
  1 58  1  0  0  0
  2 59  1  0  0  0
  3 60  1  0  0  0
  4 61  1  0  0  0
  5 62  1  0  0  0
  6 63  1  0  0  0
  6 64  1  0  0  0
  8 65  1  0  0  0
  9 66  1  0  0  0
 10 67  1  0  0  0
 12 68  1  0  0  0
 13 69  1  0  0  0
 13 70  1  0  0  0
 14 71  1  0  0  0
 15 72  1  0  0  0
 16 73  1  0  0  0
 17 74  1  0  0  0
 18 75  1  0  0  0
 19 76  1  0  0  0
 20 77  1  0  0  0
 20 78  1  0  0  0
 21 79  1  0  0  0
 21 80  1  0  0  0
 22 81  1  0  0  0
 22 82  1  0  0  0
 23 83  1  0  0  0
 23 84  1  0  0  0
 24 85  1  0  0  0
 24 86  1  0  0  0
 25 87  1  0  0  0
 25 88  1  0  0  0
 26 89  1  0  0  0
 26 90  1  0  0  0
 27 91  1  0  0  0
 27 92  1  0  0  0
 28 93  1  0  0  0
 28 94  1  0  0  0
 29 95  1  0  0  0
 29 96  1  0  0  0
 30 97  1  0  0  0
 30 98  1  0  0  0
 31 99  1  0  0  0
 31100  1  0  0  0
 32101  1  0  0  0
 32102  1  0  0  0
 32103  1  0  0  0
 35104  1  0  0  0
 35105  1  0  0  0
 36106  1  0  0  0
 36107  1  0  0  0
 37108  1  0  0  0
 37109  1  0  0  0
 38110  1  0  0  0
 38111  1  0  0  0
 39112  1  0  0  0
 39113  1  0  0  0
 40114  1  0  0  0
 40115  1  0  0  0
 41116  1  0  0  0
 41117  1  0  0  0
 42118  1  0  0  0
 42119  1  0  0  0
 43120  1  0  0  0
 43121  1  0  0  0
 44122  1  0  0  0
 44123  1  0  0  0
 45124  1  0  0  0
 45125  1  0  0  0
 46126  1  0  0  0
 46127  1  0  0  0
 47128  1  0  0  0
 47129  1  0  0  0
 48130  1  0  0  0
 49131  1  0  0  0
 50132  1  0  0  0
 50133  1  0  0  0
 51134  1  0  0  0
 51135  1  0  0  0
 52136  1  0  0  0
 52137  1  0  0  0
 53138  1  0  0  0
 53139  1  0  0  0
 54140  1  0  0  0
 54141  1  0  0  0
 55142  1  0  0  0
 55143  1  0  0  0
 56144  1  0  0  0
 56145  1  0  0  0
 57146  1  0  0  0
 57147  1  0  0  0
 57148  1  0  0  0
M  END
$$$$
