### 
### Created by X-TOOL on Tue Oct 25 01:30:28 2005
### 

@<TRIPOS>MOLECULE
1gz4_ligand
   43    45     1     0     0
SMALL
GAST_HUCK


@<TRIPOS>ATOM
      1 PG         12.4020   29.4240   35.9750 P.3       1 SUB1        0.143
      2 O1G        12.1830   28.0130   35.5450 O.co2     1 SUB1       -0.614
      3 O2G        13.8200   29.7270   36.3400 O.co2     1 SUB1       -0.614
      4 O3G        11.4160   29.8690   37.0060 O.co2     1 SUB1       -0.614
      5 PB         12.0640   30.0850   33.0440 P.3       1 SUB1        0.354
      6 O1B        10.6830   30.2870   32.5350 O.co2     1 SUB1       -0.497
      7 O2B        12.7100   28.7960   32.8030 O.co2     1 SUB1       -0.497
      8 O3B        12.0900   30.3590   34.6360 O.3       1 SUB1       -0.297
      9 PA         12.8540   32.2510   31.1520 P.3       1 SUB1        0.350
     10 O1A        14.0400   33.1460   31.1330 O.co2     1 SUB1       -0.488
     11 O2A        12.5200   31.4900   29.9240 O.co2     1 SUB1       -0.488
     12 O3A        12.9870   31.2470   32.4110 O.3       1 SUB1       -0.186
     13 O5         11.5580   33.0950   31.5750 O.3       1 SUB1       -0.280
     14 C5         11.6200   34.0170   32.6650 C.3       1 SUB1        0.102
     15 C4         10.3420   34.8230   32.6860 C.3       1 SUB1        0.118
     16 O4         10.2200   35.5180   33.9690 O.3       1 SUB1       -0.336
     17 C3         10.3530   35.8750   31.5970 C.3       1 SUB1        0.115
     18 O3          9.1270   35.8140   30.8160 O.3       1 SUB1       -0.386
     19 C2         10.4550   37.1870   32.3170 C.3       1 SUB1        0.139
     20 O2          9.7200   38.2160   31.6430 O.3       1 SUB1       -0.384
     21 C1          9.9020   36.9050   33.6840 C.3       1 SUB1        0.201
     22 N9         10.4250   37.8190   34.7230 N.pl3     1 SUB1       -0.192
     23 C8         11.7440   38.1510   34.9820 C.2       1 SUB1        0.112
     24 N7         11.7690   39.0520   35.9970 N.2       1 SUB1       -0.296
     25 C5         10.5070   39.2230   36.3040 C.ar      1 SUB1        0.105
     26 C6         10.1050   40.0870   37.3010 C.ar      1 SUB1        0.130
     27 N6         10.9790   40.7980   38.0070 N.pl3     1 SUB1       -0.315
     28 N1          8.7580   40.1840   37.5270 N.ar      1 SUB1       -0.270
     29 C2          7.8680   39.4430   36.7810 C.ar      1 SUB1        0.053
     30 N3          8.3150   38.5980   35.7980 N.ar      1 SUB1       -0.271
     31 C4          9.6670   38.4960   35.5630 C.ar      1 SUB1        0.161
     32 H141       12.4804   34.6896   32.5334 H         1 SUB1        0.064
     33 H142       11.7265   33.4661   33.6111 H         1 SUB1        0.064
     34 H151        9.4849   34.1489   32.5417 H         1 SUB1        0.065
     35 H171       11.2178   35.7324   30.9324 H         1 SUB1        0.065
     36 H181        9.1509   36.4796   30.1386 H         1 SUB1        0.210
     37 H191       11.5075   37.4977   32.3921 H         1 SUB1        0.068
     38 H201        8.8037   37.9696   31.5952 H         1 SUB1        0.210
     39 H211        8.8088   37.0236   33.6554 H         1 SUB1        0.100
     40 H231       12.6142   37.7561   34.4598 H         1 SUB1        0.135
     41 H271       10.6477   41.4351   38.7454 H         1 SUB1        0.182
     42 H272       11.9874   40.7117   37.8155 H         1 SUB1        0.182
     43 H291        6.8046   39.5287   36.9729 H         1 SUB1        0.100
@<TRIPOS>BOND
     1    1    2 2  
     2    1    3 2  
     3    1    4 2  
     4    8    1 1  
     5    5    6 2  
     6    5    7 2  
     7    5    8 1  
     8   12    5 1  
     9    9   10 2  
    10    9   11 2  
    11    9   12 1  
    12    9   13 1  
    13   13   14 1  
    14   14   15 1  
    15   15   16 1  
    16   15   17 1  
    17   16   21 1  
    18   17   18 1  
    19   17   19 1  
    20   19   20 1  
    21   19   21 1  
    22   21   22 1  
    23   22   23 1  
    24   22   31 1  
    25   23   24 2  
    26   24   25 1  
    27   25   26 ar 
    28   25   31 ar 
    29   26   27 1  
    30   26   28 ar 
    31   28   29 ar 
    32   29   30 ar 
    33   30   31 ar 
    34   14   32 1  
    35   14   33 1  
    36   15   34 1  
    37   17   35 1  
    38   18   36 1  
    39   19   37 1  
    40   20   38 1  
    41   21   39 1  
    42   23   40 1  
    43   27   41 1  
    44   27   42 1  
    45   29   43 1  
@<TRIPOS>SUBSTRUCTURE
     1 SUB1        1 GROUP

