1gz4_ligand
  -I-interpret- 

 43 45  0  0  0  0  0  0  0  0999 V2000
   12.4020   29.4240   35.9750 P   0  0  0  0  0
   12.1830   28.0130   35.5450 O   0  0  0  0  0
   13.8200   29.7270   36.3400 O   0  5  0  0  0
   11.4160   29.8690   37.0060 O   0  5  0  0  0
   12.0640   30.0850   33.0440 P   0  0  0  0  0
   10.6830   30.2870   32.5350 O   0  5  0  0  0
   12.7100   28.7960   32.8030 O   0  0  0  0  0
   12.0900   30.3590   34.6360 O   0  0  0  0  0
   12.8540   32.2510   31.1520 P   0  0  0  0  0
   14.0400   33.1460   31.1330 O   0  5  0  0  0
   12.5200   31.4900   29.9240 O   0  0  0  0  0
   12.9870   31.2470   32.4110 O   0  0  0  0  0
   11.5580   33.0950   31.5750 O   0  0  0  0  0
   11.6200   34.0170   32.6650 C   0  0  0  0  0
   10.3420   34.8230   32.6860 C   0  0  0  0  0
   10.2200   35.5180   33.9690 O   0  0  0  0  0
   10.3530   35.8750   31.5970 C   0  0  0  0  0
    9.1270   35.8140   30.8160 O   0  0  0  0  0
   10.4550   37.1870   32.3170 C   0  0  0  0  0
    9.7200   38.2160   31.6430 O   0  0  0  0  0
    9.9020   36.9050   33.6840 C   0  0  0  0  0
   10.4250   37.8190   34.7230 N   0  0  0  0  0
   11.7440   38.1510   34.9820 C   0  0  0  0  0
   11.7690   39.0520   35.9970 N   0  0  0  0  0
   10.5070   39.2230   36.3040 C   0  0  0  0  0
   10.1050   40.0870   37.3010 C   0  0  0  0  0
   10.9790   40.7980   38.0070 N   0  0  0  0  0
    8.7580   40.1840   37.5270 N   0  0  0  0  0
    7.8680   39.4430   36.7810 C   0  0  0  0  0
    8.3150   38.5980   35.7980 N   0  0  0  0  0
    9.6670   38.4960   35.5630 C   0  0  0  0  0
   12.4804   34.6896   32.5334 H   0  0  0  0  0
   11.7265   33.4661   33.6111 H   0  0  0  0  0
    9.4849   34.1489   32.5417 H   0  0  0  0  0
   11.2178   35.7324   30.9324 H   0  0  0  0  0
    9.1509   36.4796   30.1386 H   0  0  0  0  0
   11.5075   37.4977   32.3921 H   0  0  0  0  0
    8.8037   37.9696   31.5952 H   0  0  0  0  0
    8.8088   37.0236   33.6554 H   0  0  0  0  0
   12.6142   37.7561   34.4598 H   0  0  0  0  0
   10.6477   41.4351   38.7454 H   0  0  0  0  0
   11.9874   40.7117   37.8155 H   0  0  0  0  0
    6.8046   39.5287   36.9729 H   0  0  0  0  0
  1  2  2  0  0  0
  1  3  1  0  0  0
  1  4  1  0  0  0
  8  1  1  0  0  0
  5  6  1  0  0  0
  5  7  2  0  0  0
  5  8  1  0  0  0
 12  5  1  0  0  0
  9 10  1  0  0  0
  9 11  2  0  0  0
  9 12  1  0  0  0
  9 13  1  0  0  0
 13 14  1  0  0  0
 14 15  1  0  0  0
 15 16  1  0  0  0
 15 17  1  0  0  0
 16 21  1  0  0  0
 17 18  1  0  0  0
 17 19  1  0  0  0
 19 20  1  0  0  0
 19 21  1  0  0  0
 21 22  1  0  0  0
 22 23  1  0  0  0
 22 31  1  0  0  0
 23 24  2  0  0  0
 24 25  1  0  0  0
 25 26  4  0  0  0
 25 31  4  0  0  0
 26 27  1  0  0  0
 26 28  4  0  0  0
 28 29  4  0  0  0
 29 30  4  0  0  0
 30 31  4  0  0  0
 14 32  1  0  0  0
 14 33  1  0  0  0
 15 34  1  0  0  0
 17 35  1  0  0  0
 18 36  1  0  0  0
 19 37  1  0  0  0
 20 38  1  0  0  0
 21 39  1  0  0  0
 23 40  1  0  0  0
 27 41  1  0  0  0
 27 42  1  0  0  0
 29 43  1  0  0  0
M  END
$$$$
