### 
### Created by X-TOOL on Mon Oct 24 22:28:20 2005
### 

@<TRIPOS>MOLECULE
1fzq_ligand
   40    42     1     0     0
SMALL
GAST_HUCK


@<TRIPOS>ATOM
      1 PB         17.9210   10.4740   18.3760 P.3       1 SUB1        0.158
      2 O1B        18.6420   11.2950   17.3510 O.co2     1 SUB1       -0.616
      3 O2B        18.8180   10.1350   19.5810 O.co2     1 SUB1       -0.616
      4 O3B        16.6650   10.9840   19.0750 O.co2     1 SUB1       -0.616
      5 O3A        17.6190    8.9990   17.8500 O.3       1 SUB1       -0.257
      6 PA         17.9250    8.2340   16.5890 P.3       1 SUB1        0.372
      7 O1A        17.3680    8.8930   15.3360 O.co2     1 SUB1       -0.457
      8 O2A        19.4410    8.1780   16.3700 O.co2     1 SUB1       -0.457
      9 O5         17.2910    6.8880   16.8030 O.3       1 SUB1       -0.253
     10 C5         17.6560    6.0580   17.9000 C.3       1 SUB1        0.111
     11 C4         17.4270    4.5420   17.5430 C.3       1 SUB1        0.119
     12 O4         16.0510    4.3050   17.3330 O.3       1 SUB1       -0.336
     13 C3         18.1770    4.0960   16.2600 C.3       1 SUB1        0.115
     14 O3         18.6110    2.7510   16.5880 O.3       1 SUB1       -0.386
     15 C2         17.0730    4.1220   15.2110 C.3       1 SUB1        0.139
     16 O2         17.2330    3.2810   14.0550 O.3       1 SUB1       -0.384
     17 C1         15.8380    3.7480   16.0310 C.3       1 SUB1        0.199
     18 N9         14.6160    4.3720   15.4960 N.pl3     1 SUB1       -0.210
     19 C8         14.3320    5.7010   15.1900 C.2       1 SUB1        0.096
     20 N7         13.0850    5.8600   14.7230 N.2       1 SUB1       -0.324
     21 C5         12.4980    4.5420   14.7200 C.2       1 SUB1        0.093
     22 C6         11.1540    3.9440   14.3360 C.2       1 SUB1        0.213
     23 O6         10.2440    4.6550   13.9110 O.2       1 SUB1       -0.409
     24 N1         10.8920    2.6020   14.4520 N.am      1 SUB1       -0.184
     25 C2         11.8420    1.6750   14.9270 C.2       1 SUB1        0.234
     26 N2         11.5660    0.3730   15.0290 N.pl3     1 SUB1       -0.281
     27 N3         13.0880    2.2190   15.2850 N.2       1 SUB1       -0.276
     28 C4         13.4210    3.6740   15.1770 C.2       1 SUB1        0.116
     29 H101       17.0414    6.3212   18.7735 H         1 SUB1        0.065
     30 H102       18.7181    6.2177   18.1374 H         1 SUB1        0.065
     31 H111       17.7788    3.9316   18.3878 H         1 SUB1        0.065
     32 H131       19.0221    4.7443   15.9852 H         1 SUB1        0.065
     33 H141       19.0882    2.3852   15.8525 H         1 SUB1        0.210
     34 H151       16.9705    5.1519   14.8384 H         1 SUB1        0.068
     35 H161       16.4833    3.3873   13.4812 H         1 SUB1        0.210
     36 H171       15.7208    2.6551   16.0738 H         1 SUB1        0.100
     37 H191       15.0415    6.5175   15.3157 H         1 SUB1        0.118
     38 H241        9.9875    2.2669   14.1880 H         1 SUB1        0.252
     39 H261       12.2818   -0.2792   15.3798 H         1 SUB1        0.190
     40 H262       10.6372    0.0206   14.7569 H         1 SUB1        0.190
@<TRIPOS>BOND
     1    1    2 2  
     2    1    3 2  
     3    1    4 2  
     4    1    5 1  
     5    5    6 1  
     6    6    7 2  
     7    6    8 2  
     8    6    9 1  
     9    9   10 1  
    10   10   11 1  
    11   11   12 1  
    12   11   13 1  
    13   12   17 1  
    14   13   14 1  
    15   13   15 1  
    16   15   16 1  
    17   15   17 1  
    18   17   18 1  
    19   18   19 1  
    20   18   28 1  
    21   19   20 2  
    22   20   21 1  
    23   21   22 1  
    24   21   28 2  
    25   22   23 2  
    26   22   24 am 
    27   24   25 1  
    28   25   26 1  
    29   25   27 2  
    30   27   28 1  
    31   10   29 1  
    32   10   30 1  
    33   11   31 1  
    34   13   32 1  
    35   14   33 1  
    36   15   34 1  
    37   16   35 1  
    38   17   36 1  
    39   19   37 1  
    40   24   38 1  
    41   26   39 1  
    42   26   40 1  
@<TRIPOS>SUBSTRUCTURE
     1 SUB1        1 GROUP

