### 
### Created by X-TOOL on Tue Oct 25 01:45:34 2005
### 

@<TRIPOS>MOLECULE
1jqd_ligand
   46    48     1     0     0
SMALL
GAST_HUCK


@<TRIPOS>ATOM
      1 N          41.9950  -23.2310   -0.6930 N.4       1 SUB1        0.238
      2 CA         43.3370  -23.9400   -0.3730 C.3       1 SUB1        0.016
      3 CB         43.2460  -25.4210   -0.8620 C.3       1 SUB1        0.011
      4 CG         42.2290  -26.1880   -0.1680 C.3       1 SUB1        0.002
      5 SD         42.8660  -27.4470    0.8810 S.3       1 SUB1       -0.158
      6 C          44.4870  -23.3630   -1.1810 C.2       1 SUB1        0.076
      7 O          44.2200  -23.0940   -2.3970 O.co2     1 SUB1       -0.561
      8 OXT        45.6610  -23.6460   -0.8290 O.co2     1 SUB1       -0.561
      9 C5'        41.2850  -27.6290    1.7190 C.3       1 SUB1        0.023
     10 C4'        41.0400  -26.5490    2.7860 C.3       1 SUB1        0.100
     11 O4'        39.6880  -26.7880    3.2020 O.3       1 SUB1       -0.338
     12 C3'        41.9820  -26.7020    4.0540 C.3       1 SUB1        0.113
     13 O3'        42.5470  -25.4180    4.5000 O.3       1 SUB1       -0.386
     14 C2'        40.9480  -27.2130    5.0190 C.3       1 SUB1        0.139
     15 O2'        41.1780  -26.9930    6.3780 O.3       1 SUB1       -0.384
     16 C1'        39.6510  -26.5530    4.5570 C.3       1 SUB1        0.201
     17 N9         38.3840  -27.1530    4.9780 N.pl3     1 SUB1       -0.192
     18 C8         38.1510  -28.5230    5.3180 C.2       1 SUB1        0.112
     19 N7         36.9270  -28.7490    5.5670 N.2       1 SUB1       -0.296
     20 C5         36.2710  -27.5280    5.4160 C.ar      1 SUB1        0.105
     21 C6         34.8990  -27.1010    5.5240 C.ar      1 SUB1        0.130
     22 N6         33.9370  -28.0030    5.7500 N.pl3     1 SUB1       -0.315
     23 N1         34.5590  -25.7330    5.3580 N.ar      1 SUB1       -0.270
     24 C2         35.5600  -24.8210    5.0320 C.ar      1 SUB1        0.053
     25 N3         36.8400  -25.1480    4.8430 N.ar      1 SUB1       -0.271
     26 C4         37.1600  -26.5080    5.0670 C.ar      1 SUB1        0.161
     27 H11        41.2586  -23.6400   -0.1394 H         1 SUB1        0.202
     28 H12        41.7811  -23.3425   -1.6717 H         1 SUB1        0.202
     29 H13        42.0732  -22.2498   -0.4757 H         1 SUB1        0.202
     30 H21        43.5457  -23.8813    0.7054 H         1 SUB1        0.107
     31 H31        44.2207  -25.9040   -0.6990 H         1 SUB1        0.036
     32 H32        43.0119  -25.4210   -1.9368 H         1 SUB1        0.036
     33 H41        41.5806  -26.6611   -0.9201 H         1 SUB1        0.038
     34 H42        41.6340  -25.4959    0.4459 H         1 SUB1        0.038
     35 H91        41.2584  -28.6148    2.2062 H         1 SUB1        0.040
     36 H92        40.4824  -27.5688    0.9692 H         1 SUB1        0.040
     37 H101       41.1596  -25.5444    2.3543 H         1 SUB1        0.063
     38 H121       42.7943  -27.4242    3.8850 H         1 SUB1        0.065
     39 H131       42.9573  -25.5318    5.3492 H         1 SUB1        0.210
     40 H141       40.8673  -28.3019    4.8860 H         1 SUB1        0.068
     41 H151       41.2408  -26.0591    6.5403 H         1 SUB1        0.210
     42 H161       39.6587  -25.4830    4.8119 H         1 SUB1        0.100
     43 H181       38.9311  -29.2818    5.3584 H         1 SUB1        0.135
     44 H221       32.9555  -27.7006    5.8277 H         1 SUB1        0.182
     45 H222       34.1780  -28.9998    5.8463 H         1 SUB1        0.182
     46 H241       35.2815  -23.7789    4.9249 H         1 SUB1        0.100
@<TRIPOS>BOND
     1    1    2 1  
     2    2    6 1  
     3    2    3 1  
     4    3    4 1  
     5    4    5 1  
     6    5    9 1  
     7    9   10 1  
     8   10   12 1  
     9   10   11 1  
    10   11   16 1  
    11   16   17 1  
    12   16   14 1  
    13   14   15 1  
    14   14   12 1  
    15   12   13 1  
    16   17   26 1  
    17   17   18 1  
    18   18   19 2  
    19   19   20 1  
    20   20   26 ar 
    21   20   21 ar 
    22   21   23 ar 
    23   21   22 1  
    24   23   24 ar 
    25   24   25 ar 
    26   25   26 ar 
    27    6    8 2  
    28    6    7 2  
    29    1   27 1  
    30    1   28 1  
    31    1   29 1  
    32    2   30 1  
    33    3   31 1  
    34    3   32 1  
    35    4   33 1  
    36    4   34 1  
    37    9   35 1  
    38    9   36 1  
    39   10   37 1  
    40   12   38 1  
    41   13   39 1  
    42   14   40 1  
    43   15   41 1  
    44   16   42 1  
    45   18   43 1  
    46   22   44 1  
    47   22   45 1  
    48   24   46 1  
@<TRIPOS>SUBSTRUCTURE
     1 SUB1        1 GROUP

