1jqd_ligand
  -I-interpret- 

 46 48  0  0  0  0  0  0  0  0999 V2000
   41.9950  -23.2310   -0.6930 N   0  3  0  0  0
   43.3370  -23.9400   -0.3730 C   0  0  0  0  0
   43.2460  -25.4210   -0.8620 C   0  0  0  0  0
   42.2290  -26.1880   -0.1680 C   0  0  0  0  0
   42.8660  -27.4470    0.8810 S   0  0  0  0  0
   44.4870  -23.3630   -1.1810 C   0  0  0  0  0
   44.2200  -23.0940   -2.3970 O   0  5  0  0  0
   45.6610  -23.6460   -0.8290 O   0  0  0  0  0
   41.2850  -27.6290    1.7190 C   0  0  0  0  0
   41.0400  -26.5490    2.7860 C   0  0  0  0  0
   39.6880  -26.7880    3.2020 O   0  0  0  0  0
   41.9820  -26.7020    4.0540 C   0  0  0  0  0
   42.5470  -25.4180    4.5000 O   0  0  0  0  0
   40.9480  -27.2130    5.0190 C   0  0  0  0  0
   41.1780  -26.9930    6.3780 O   0  0  0  0  0
   39.6510  -26.5530    4.5570 C   0  0  0  0  0
   38.3840  -27.1530    4.9780 N   0  0  0  0  0
   38.1510  -28.5230    5.3180 C   0  0  0  0  0
   36.9270  -28.7490    5.5670 N   0  0  0  0  0
   36.2710  -27.5280    5.4160 C   0  0  0  0  0
   34.8990  -27.1010    5.5240 C   0  0  0  0  0
   33.9370  -28.0030    5.7500 N   0  0  0  0  0
   34.5590  -25.7330    5.3580 N   0  0  0  0  0
   35.5600  -24.8210    5.0320 C   0  0  0  0  0
   36.8400  -25.1480    4.8430 N   0  0  0  0  0
   37.1600  -26.5080    5.0670 C   0  0  0  0  0
   41.2586  -23.6400   -0.1394 H   0  0  0  0  0
   41.7811  -23.3425   -1.6717 H   0  0  0  0  0
   42.0732  -22.2498   -0.4757 H   0  0  0  0  0
   43.5457  -23.8813    0.7054 H   0  0  0  0  0
   44.2207  -25.9040   -0.6990 H   0  0  0  0  0
   43.0119  -25.4210   -1.9368 H   0  0  0  0  0
   41.5806  -26.6611   -0.9201 H   0  0  0  0  0
   41.6340  -25.4959    0.4459 H   0  0  0  0  0
   41.2584  -28.6148    2.2062 H   0  0  0  0  0
   40.4824  -27.5688    0.9692 H   0  0  0  0  0
   41.1596  -25.5444    2.3543 H   0  0  0  0  0
   42.7943  -27.4242    3.8850 H   0  0  0  0  0
   42.9573  -25.5318    5.3492 H   0  0  0  0  0
   40.8673  -28.3019    4.8860 H   0  0  0  0  0
   41.2408  -26.0591    6.5403 H   0  0  0  0  0
   39.6587  -25.4830    4.8119 H   0  0  0  0  0
   38.9311  -29.2818    5.3584 H   0  0  0  0  0
   32.9555  -27.7006    5.8277 H   0  0  0  0  0
   34.1780  -28.9998    5.8463 H   0  0  0  0  0
   35.2815  -23.7789    4.9249 H   0  0  0  0  0
  1  2  1  0  0  0
  2  6  1  0  0  0
  2  3  1  0  0  0
  3  4  1  0  0  0
  4  5  1  0  0  0
  5  9  1  0  0  0
  9 10  1  0  0  0
 10 12  1  0  0  0
 10 11  1  0  0  0
 11 16  1  0  0  0
 16 17  1  0  0  0
 16 14  1  0  0  0
 14 15  1  0  0  0
 14 12  1  0  0  0
 12 13  1  0  0  0
 17 26  1  0  0  0
 17 18  1  0  0  0
 18 19  2  0  0  0
 19 20  1  0  0  0
 20 26  4  0  0  0
 20 21  4  0  0  0
 21 23  4  0  0  0
 21 22  1  0  0  0
 23 24  4  0  0  0
 24 25  4  0  0  0
 25 26  4  0  0  0
  6  8  2  0  0  0
  6  7  1  0  0  0
  1 27  1  0  0  0
  1 28  1  0  0  0
  1 29  1  0  0  0
  2 30  1  0  0  0
  3 31  1  0  0  0
  3 32  1  0  0  0
  4 33  1  0  0  0
  4 34  1  0  0  0
  9 35  1  0  0  0
  9 36  1  0  0  0
 10 37  1  0  0  0
 12 38  1  0  0  0
 13 39  1  0  0  0
 14 40  1  0  0  0
 15 41  1  0  0  0
 16 42  1  0  0  0
 18 43  1  0  0  0
 22 44  1  0  0  0
 22 45  1  0  0  0
 24 46  1  0  0  0
M  END
$$$$
