### 
### Created by X-TOOL on Tue Oct 25 02:02:57 2005
### 

@<TRIPOS>MOLECULE
1pxp_ligand
   42    44     1     0     0
SMALL
GAST_HUCK


@<TRIPOS>ATOM
      1 C6         25.8400   38.9330    7.6930 C.ar      1 SUB1        0.002
      2 N1         24.8070   39.6250    7.1580 N.ar      1 SUB1       -0.266
      3 C2         24.6340   40.8890    7.5400 C.ar      1 SUB1        0.193
      4 N3         25.4070   41.5310    8.4140 N.ar      1 SUB1       -0.266
      5 C4         26.4580   40.9120    8.9870 C.ar      1 SUB1        0.042
      6 C5         26.7260   39.5300    8.6380 C.ar      1 SUB1       -0.030
      7 C5A        27.2300   41.7030    9.9210 C.2       1 SUB1        0.067
      8 C1A        28.4880   41.5580   10.5510 C.2       1 SUB1        0.014
      9 N2A        28.8380   42.5880   11.3930 N.2       1 SUB1       -0.296
     10 C3A        27.8800   43.5160   11.4230 C.2       1 SUB1        0.097
     11 S4A        26.5200   43.2120   10.4510 S.3       1 SUB1       -0.001
     12 C6A        29.4860   40.4140   10.4090 C.3       1 SUB1       -0.022
     13 C7A        27.9500   44.7810   12.2540 C.3       1 SUB1        0.011
     14 N7         23.5220   41.5710    6.9430 N.pl3     1 SUB1       -0.251
     15 C1B        22.9310   42.8980    7.0440 C.ar      1 SUB1        0.053
     16 C2B        23.4270   43.9110    7.9250 C.ar      1 SUB1       -0.049
     17 C3B        22.8120   45.1810    7.9760 C.ar      1 SUB1       -0.056
     18 C4B        21.6760   45.4890    7.1470 C.ar      1 SUB1        0.017
     19 C5B        21.1900   44.4540    6.2710 C.ar      1 SUB1       -0.056
     20 C6B        21.8070   43.1830    6.2250 C.ar      1 SUB1       -0.049
     21 N7B        21.0260   46.8450    7.1980 N.3       1 SUB1       -0.264
     22 C8B        19.8470   47.2080    6.3560 C.3       1 SUB1        0.004
     23 C9B        21.5130   47.9360    8.0960 C.3       1 SUB1        0.004
     24 H11        25.9974   37.9022    7.3967 H         1 SUB1        0.085
     25 H61        27.5541   38.9810    9.0715 H         1 SUB1        0.060
     26 H121       30.3658   40.6148   11.0380 H         1 SUB1        0.041
     27 H122       29.7987   40.3285    9.3579 H         1 SUB1        0.041
     28 H123       29.0136   39.4735   10.7287 H         1 SUB1        0.041
     29 H131       28.8979   44.8013   12.8117 H         1 SUB1        0.051
     30 H132       27.1079   44.8021   12.9614 H         1 SUB1        0.051
     31 H133       27.8951   45.6580   11.5923 H         1 SUB1        0.051
     32 H141       22.6919   40.9260    7.1906 H         1 SUB1        0.214
     33 H161       24.2816   43.7016    8.5581 H         1 SUB1        0.051
     34 H171       23.2012   45.9357    8.6498 H         1 SUB1        0.049
     35 H191       20.3351   44.6535    5.6351 H         1 SUB1        0.049
     36 H201       21.4190   42.4204    5.5595 H         1 SUB1        0.051
     37 H221       19.5514   48.2463    6.5671 H         1 SUB1        0.044
     38 H222       19.0093   46.5339    6.5880 H         1 SUB1        0.044
     39 H223       20.1120   47.1112    5.2928 H         1 SUB1        0.044
     40 H231       22.3781   47.5772    8.6729 H         1 SUB1        0.044
     41 H232       20.7083   48.2295    8.7862 H         1 SUB1        0.044
     42 H233       21.8110   48.8042    7.4899 H         1 SUB1        0.044
@<TRIPOS>BOND
     1    1    2 ar 
     2    1    6 ar 
     3    2    3 ar 
     4    3    4 ar 
     5    3   14 1  
     6    4    5 ar 
     7    5    6 ar 
     8    5    7 1  
     9    7    8 2  
    10    7   11 1  
    11    8    9 1  
    12    8   12 1  
    13    9   10 2  
    14   10   11 1  
    15   10   13 1  
    16   14   15 1  
    17   15   16 ar 
    18   15   20 ar 
    19   16   17 ar 
    20   17   18 ar 
    21   18   19 ar 
    22   18   21 1  
    23   19   20 ar 
    24   21   22 1  
    25   21   23 1  
    26    1   24 1  
    27    6   25 1  
    28   12   26 1  
    29   12   27 1  
    30   12   28 1  
    31   13   29 1  
    32   13   30 1  
    33   13   31 1  
    34   14   32 1  
    35   16   33 1  
    36   17   34 1  
    37   19   35 1  
    38   20   36 1  
    39   22   37 1  
    40   22   38 1  
    41   22   39 1  
    42   23   40 1  
    43   23   41 1  
    44   23   42 1  
@<TRIPOS>SUBSTRUCTURE
     1 SUB1        1 GROUP

