### 
### Created by X-TOOL on Mon Oct 24 23:56:48 2005
### 

@<TRIPOS>MOLECULE
1e3v_ligand
   67    70     1     0     0
SMALL
GAST_HUCK


@<TRIPOS>ATOM
      1 C1          4.8530   -3.5000   84.8790 C.3       1 SUB1        0.056
      2 C2          3.8190   -4.1940   83.9850 C.3       1 SUB1       -0.023
      3 C3          2.4560   -4.3450   84.6990 C.3       1 SUB1       -0.033
      4 C4          2.5860   -5.0840   86.0690 C.3       1 SUB1       -0.026
      5 C5          3.6330   -4.3160   86.9230 C.3       1 SUB1       -0.045
      6 C6          5.0020   -4.2480   86.2280 C.3       1 SUB1       -0.026
      7 C7          1.4380   -5.0580   83.7720 C.3       1 SUB1       -0.049
      8 C8          1.7720   -6.5490   83.5890 C.3       1 SUB1       -0.049
      9 C9          1.9340   -7.2910   84.9280 C.3       1 SUB1       -0.034
     10 C10         2.9990   -6.5880   85.8200 C.3       1 SUB1       -0.030
     11 C11         2.3590   -8.7630   84.7180 C.3       1 SUB1       -0.030
     12 C12         2.5170   -9.5400   86.0420 C.3       1 SUB1        0.000
     13 C13         3.5660   -8.8710   86.9500 C.3       1 SUB1        0.061
     14 C14         3.1550   -7.3830   87.1570 C.3       1 SUB1       -0.023
     15 C15         1.5170   -9.6960   83.8400 C.3       1 SUB1       -0.049
     16 C16         1.8870  -11.1160   84.3090 C.3       1 SUB1       -0.049
     17 C17         2.9060  -10.9290   85.4540 C.3       1 SUB1       -0.030
     18 C18         1.2480   -5.0530   86.8530 C.3       1 SUB1       -0.059
     19 C19         2.9680  -12.1840   86.3940 C.3       1 SUB1       -0.038
     20 O1          4.8440   -8.9610   86.3340 O.3       1 SUB1       -0.391
     21 O2          6.0610   -3.3990   84.1510 O.3       1 SUB1       -0.392
     22 C20         1.1760   -9.6220   86.8150 C.3       1 SUB1       -0.057
     23 C21         3.3500  -13.4460   85.5780 C.3       1 SUB1       -0.039
     24 C22         4.7310  -13.4140   84.9230 C.3       1 SUB1       -0.014
     25 C23         4.6260  -14.0460   83.5410 C.2       1 SUB1        0.028
     26 O3          4.7740  -13.4660   82.5160 O.co2     1 SUB1       -0.567
     27 O4          4.3460  -15.3480   83.6050 O.co2     1 SUB1       -0.567
     28 C24         3.9780  -12.0070   87.5370 C.3       1 SUB1       -0.062
     29 H11         4.5009   -2.4818   85.1007 H         1 SUB1        0.059
     30 H21         4.1932   -5.1928   83.7161 H         1 SUB1        0.029
     31 H22         3.6789   -3.5968   83.0719 H         1 SUB1        0.029
     32 H31         2.0738   -3.3342   84.9044 H         1 SUB1        0.031
     33 H51         3.7498   -4.8296   87.8887 H         1 SUB1        0.027
     34 H52         3.2700   -3.2918   87.0940 H         1 SUB1        0.027
     35 H61         5.7142   -3.7094   86.8704 H         1 SUB1        0.029
     36 H62         5.3722   -5.2674   86.0443 H         1 SUB1        0.029
     37 H71         1.4502   -4.5678   82.7874 H         1 SUB1        0.027
     38 H72         0.4340   -4.9704   84.2129 H         1 SUB1        0.027
     39 H81         0.9596   -7.0241   83.0196 H         1 SUB1        0.027
     40 H82         2.7126   -6.6321   83.0247 H         1 SUB1        0.027
     41 H91         0.9660   -7.2752   85.4502 H         1 SUB1        0.031
     42 H101        3.9653   -6.5980   85.2945 H         1 SUB1        0.031
     43 H111        3.3492   -8.7015   84.2429 H         1 SUB1        0.031
     44 H131        3.5955   -9.3818   87.9237 H         1 SUB1        0.060
     45 H141        2.1937   -7.3583   87.6911 H         1 SUB1        0.029
     46 H142        3.9263   -6.8903   87.7672 H         1 SUB1        0.029
     47 H151        1.7688   -9.5607   82.7778 H         1 SUB1        0.027
     48 H152        0.4440   -9.5056   83.9897 H         1 SUB1        0.027
     49 H161        0.9935  -11.6438   84.6738 H         1 SUB1        0.027
     50 H162        2.3384  -11.6864   83.4839 H         1 SUB1        0.027
     51 H171        3.9134  -10.8315   85.0232 H         1 SUB1        0.031
     52 H181        0.4755   -5.5881   86.2812 H         1 SUB1        0.023
     53 H182        0.9354   -4.0092   87.0037 H         1 SUB1        0.023
     54 H183        1.3841   -5.5397   87.8300 H         1 SUB1        0.023
     55 H191        1.9702  -12.3333   86.8323 H         1 SUB1        0.030
     56 H201        5.4930   -8.5490   86.8921 H         1 SUB1        0.210
     57 H211        5.9020   -2.9324   83.3389 H         1 SUB1        0.210
     58 H221        0.4149  -10.0981   86.1793 H         1 SUB1        0.024
     59 H222        0.8459   -8.6081   87.0852 H         1 SUB1        0.024
     60 H223        1.3154  -10.2180   87.7289 H         1 SUB1        0.024
     61 H231        2.6009  -13.5749   84.7829 H         1 SUB1        0.030
     62 H232        3.3170  -14.3111   86.2566 H         1 SUB1        0.030
     63 H241        5.4460  -13.9814   85.5369 H         1 SUB1        0.049
     64 H242        5.0732  -12.3728   84.8296 H         1 SUB1        0.049
     65 H281        3.7159  -11.1136   88.1228 H         1 SUB1        0.023
     66 H282        4.9882  -11.8877   87.1185 H         1 SUB1        0.023
     67 H283        3.9533  -12.8929   88.1886 H         1 SUB1        0.023
@<TRIPOS>BOND
     1    1   21 1  
     2    1    6 1  
     3    1    2 1  
     4    2    3 1  
     5    3    7 1  
     6    3    4 1  
     7    4   18 1  
     8    4   10 1  
     9    4    5 1  
    10    5    6 1  
    11   10   14 1  
    12   10    9 1  
    13    9   11 1  
    14    9    8 1  
    15    8    7 1  
    16   11   15 1  
    17   11   12 1  
    18   12   22 1  
    19   12   17 1  
    20   12   13 1  
    21   13   20 1  
    22   13   14 1  
    23   17   19 1  
    24   17   16 1  
    25   16   15 1  
    26   19   28 1  
    27   19   23 1  
    28   23   24 1  
    29   24   25 1  
    30   25   27 2  
    31   25   26 2  
    32    1   29 1  
    33    2   30 1  
    34    2   31 1  
    35    3   32 1  
    36    5   33 1  
    37    5   34 1  
    38    6   35 1  
    39    6   36 1  
    40    7   37 1  
    41    7   38 1  
    42    8   39 1  
    43    8   40 1  
    44    9   41 1  
    45   10   42 1  
    46   11   43 1  
    47   13   44 1  
    48   14   45 1  
    49   14   46 1  
    50   15   47 1  
    51   15   48 1  
    52   16   49 1  
    53   16   50 1  
    54   17   51 1  
    55   18   52 1  
    56   18   53 1  
    57   18   54 1  
    58   19   55 1  
    59   20   56 1  
    60   21   57 1  
    61   22   58 1  
    62   22   59 1  
    63   22   60 1  
    64   23   61 1  
    65   23   62 1  
    66   24   63 1  
    67   24   64 1  
    68   28   65 1  
    69   28   66 1  
    70   28   67 1  
@<TRIPOS>SUBSTRUCTURE
     1 SUB1        1 GROUP

