1c5p_ligand
  -I-interpret- 

 18 18  0  0  0  0  0  0  0  0999 V2000
   46.0003   21.0059   54.1297 H   0  0  0  0  0
   45.3845   22.6737   52.4198 H   0  0  0  0  0
   44.5500   21.9311   50.2113 H   0  0  0  0  0
   44.3461   19.5110   49.7163 H   0  0  0  0  0
   44.9635   17.8431   51.4154 H   0  0  0  0  0
   47.0136   18.0181   55.5455 H   0  0  0  0  0
   47.1368   19.6492   54.8335 H   0  0  0  0  0
   44.7381   16.9090   53.0938 H   0  0  0  0  0
   45.6721   16.4570   54.5450 H   0  0  0  0  0
   45.5430   19.2870   52.9170 C   0  0  0  0  0
   45.6420   20.6680   53.1640 C   0  0  0  0  0
   45.2920   21.6160   52.2010 C   0  0  0  0  0
   44.8250   21.1990   50.9620 C   0  0  0  0  0
   44.7100   19.8370   50.6840 C   0  0  0  0  0
   45.0610   18.8980   51.6450 C   0  0  0  0  0
   45.9020   18.3560   53.8920 C   0  3  0  0  0
   46.7420   18.6980   54.8210 N   0  0  0  0  0
   45.4030   17.1580   53.8400 N   0  0  0  0  0
 11  1  1  0  0  0
 12  2  1  0  0  0
 13  3  1  0  0  0
 14  4  1  0  0  0
 15  5  1  0  0  0
 17  6  1  0  0  0
 17  7  1  0  0  0
 18  8  1  0  0  0
 16 10  1  0  0  0
 10 15  4  0  0  0
 10 11  4  0  0  0
 11 12  4  0  0  0
 12 13  4  0  0  0
 14 13  4  0  0  0
 15 14  4  0  0  0
 16 18  1  0  0  0
 16 17  1  0  0  0
 18  9  1  0  0  0
M  END
$$$$
