### 
### Created by X-TOOL on Mon Oct 24 21:59:07 2005
### 

@<TRIPOS>MOLECULE
1c5p_ligand
   18    18     1     0     0
SMALL
GAST_HUCK


@<TRIPOS>ATOM
      1 H111       46.0003   21.0059   54.1297 H         1 SUB1        0.066
      2 H121       45.3845   22.6737   52.4198 H         1 SUB1        0.062
      3 H131       44.5500   21.9311   50.2113 H         1 SUB1        0.062
      4 H141       44.3461   19.5110   49.7163 H         1 SUB1        0.062
      5 H151       44.9635   17.8431   51.4154 H         1 SUB1        0.066
      6 H171       47.0136   18.0181   55.5455 H         1 SUB1        0.192
      7 H172       47.1368   19.6492   54.8335 H         1 SUB1        0.192
      8 H181       44.7381   16.9090   53.0938 H         1 SUB1        0.192
      9 H182       45.6721   16.4570   54.5450 H         1 SUB1        0.192
     10 C1         45.5430   19.2870   52.9170 C.ar      1 SUB1        0.186
     11 C2         45.6420   20.6680   53.1640 C.ar      1 SUB1       -0.007
     12 C3         45.2920   21.6160   52.2010 C.ar      1 SUB1       -0.057
     13 C4         44.8250   21.1990   50.9620 C.ar      1 SUB1       -0.062
     14 C5         44.7100   19.8370   50.6840 C.ar      1 SUB1       -0.057
     15 C6         45.0610   18.8980   51.6450 C.ar      1 SUB1       -0.007
     16 C          45.9020   18.3560   53.8920 C.cat     1 SUB1        0.316
     17 N1         46.7420   18.6980   54.8210 N.pl3     1 SUB1       -0.200
     18 N2         45.4030   17.1580   53.8400 N.pl3     1 SUB1       -0.200
@<TRIPOS>BOND
     1   11    1 1  
     2   12    2 1  
     3   13    3 1  
     4   14    4 1  
     5   15    5 1  
     6   17    6 1  
     7   17    7 1  
     8   18    8 1  
     9   16   10 1  
    10   10   15 ar 
    11   10   11 ar 
    12   11   12 ar 
    13   12   13 ar 
    14   14   13 ar 
    15   15   14 ar 
    16   16   18 1  
    17   16   17 1  
    18   18    9 1  
@<TRIPOS>SUBSTRUCTURE
     1 SUB1        1 GROUP

