### 
### Created by X-TOOL on Mon Oct 24 22:40:17 2005
### 

@<TRIPOS>MOLECULE
1usn_ligand
   37    38     1     0     0
SMALL
GAST_HUCK


@<TRIPOS>ATOM
      1 C1         30.2460   46.7170   48.5170 C.2       1 SUB1        0.218
      2 C2         31.5450   48.6720   48.9840 C.2       1 SUB1        0.156
      3 C3         28.0690   45.4910   48.7770 C.2       1 SUB1        0.300
      4 C7         25.2580   44.2280   47.2870 C.3       1 SUB1        0.019
      5 C8         24.5330   46.5630   46.8750 C.ar      1 SUB1        0.159
      6 C9         25.4050   45.5580   46.6030 C.ar      1 SUB1        0.022
      7 C10        26.3780   45.7110   45.6450 C.ar      1 SUB1        0.159
      8 C11        26.5220   46.9180   45.0240 C.ar      1 SUB1        0.186
      9 C12        25.6820   47.9480   45.3290 C.ar      1 SUB1        0.187
     10 C13        24.6970   47.7870   46.2570 C.ar      1 SUB1        0.186
     11 C14        24.3630   41.3640   50.6840 C.3       1 SUB1        0.020
     12 S1         29.9770   48.1660   49.3840 S.3       1 SUB1        0.074
     13 N1         31.4160   46.6130   47.9580 N.2       1 SUB1       -0.276
     14 N2         32.1760   47.7510   48.2380 N.2       1 SUB1       -0.279
     15 N3         29.3610   45.5620   48.4130 N.am      1 SUB1       -0.181
     16 S2         32.3620   50.2300   49.4090 S.3       1 SUB1       -0.074
     17 O1         27.4500   46.5950   49.3110 O.2       1 SUB1       -0.387
     18 N4         27.3770   44.2800   48.4840 N.am      1 SUB1       -0.243
     19 C5         25.9460   44.2060   48.6720 C.3       1 SUB1        0.140
     20 C6         25.7070   42.8950   49.3170 C.2       1 SUB1        0.203
     21 O2         26.4450   41.9680   49.0470 O.2       1 SUB1       -0.394
     22 N5         24.5620   42.7460   50.1680 N.am      1 SUB1       -0.288
     23 H41        24.1872   44.0140   47.4196 H         1 SUB1        0.045
     24 F10        27.2580   44.7130   45.3510 F         1 SUB1       -0.195
     25 F11        27.4790   47.1340   44.0660 F         1 SUB1       -0.191
     26 F12        25.7740   49.1330   44.6540 F         1 SUB1       -0.193
     27 F13        23.8030   48.8230   46.4920 F         1 SUB1       -0.191
     28 F8         23.4670   46.4350   47.7380 F         1 SUB1       -0.195
     29 H42        25.7115   43.4515   46.6535 H         1 SUB1        0.045
     30 H111       23.4689   41.3369   51.3243 H         1 SUB1        0.048
     31 H112       25.2431   41.0612   51.2703 H         1 SUB1        0.048
     32 H113       24.2298   40.6727   49.8389 H         1 SUB1        0.048
     33 H151       29.7602   44.7300   48.0278 H         1 SUB1        0.239
     34 H161       33.2944   50.2344   49.0261 H         1 SUB1        0.131
     35 H181       27.8804   43.4835   48.1492 H         1 SUB1        0.189
     36 H191       25.5800   45.0326   49.2987 H         1 SUB1        0.082
     37 H221       23.9508   43.5043   50.3948 H         1 SUB1        0.185
@<TRIPOS>BOND
     1    1   15 am 
     2   13    1 2  
     3    1   12 1  
     4   14   13 1  
     5   15    3 am 
     6    3   17 2  
     7    3   18 am 
     8   18   19 1  
     9   19   20 1  
    10   19    4 1  
    11    4    6 1  
    12    6    5 ar 
    13    6    7 ar 
    14    7    8 ar 
    15    8    9 ar 
    16   10    9 ar 
    17    5   10 ar 
    18   20   22 am 
    19   20   21 2  
    20   22   11 1  
    21    7   24 1  
    22    2   16 1  
    23   14    2 2  
    24   12    2 1  
    25    8   25 1  
    26    9   26 1  
    27   10   27 1  
    28    5   28 1  
    29    4   23 1  
    30    4   29 1  
    31   11   30 1  
    32   11   31 1  
    33   11   32 1  
    34   15   33 1  
    35   16   34 1  
    36   18   35 1  
    37   19   36 1  
    38   22   37 1  
@<TRIPOS>SUBSTRUCTURE
     1 SUB1        1 GROUP

