### 
### Created by X-TOOL on Sun Jun  3 12:17:38 2007
### 

@<TRIPOS>MOLECULE
2f8g_ligand
   75    78     1     0     0
SMALL
GAST_HUCK


@<TRIPOS>ATOM
      1 N1         11.3930   17.4080   21.4820 N.pl3     1 SUB1       -0.337
      2 C2         12.4430   18.0070   20.8380 C.ar      1 SUB1        0.035
      3 C3         13.3160   18.8320   21.5430 C.ar      1 SUB1       -0.043
      4 C4         14.3420   19.4980   20.8770 C.ar      1 SUB1       -0.047
      5 C5         14.5400   19.2250   19.5170 C.ar      1 SUB1        0.095
      6 C6         13.6350   18.4830   18.7400 C.ar      1 SUB1       -0.047
      7 C7         12.5820   17.8360   19.4380 C.ar      1 SUB1       -0.043
      8 S8         15.7490   20.2650   18.6240 S.o2      1 SUB1        0.065
      9 O9         16.7860   20.7570   19.6270 O.2       1 SUB1       -0.152
     10 O10        16.2630   19.4170   17.4360 O.2       1 SUB1       -0.152
     11 N11        14.9730   21.6620   17.8780 N.am      1 SUB1       -0.233
     12 C12        13.9330   21.3620   16.8460 C.3       1 SUB1        0.032
     13 C13        13.9560   22.4270   15.7360 C.3       1 SUB1       -0.030
     14 C14        15.2940   22.4620   15.0410 C.3       1 SUB1       -0.061
     15 C15        12.8080   22.2160   14.7760 C.3       1 SUB1       -0.061
     16 C16        14.7330   22.8000   18.8470 C.3       1 SUB1        0.058
     17 C17        15.6880   23.9740   18.3970 C.3       1 SUB1        0.097
     18 O18        15.1770   25.1080   19.0740 O.3       1 SUB1       -0.388
     19 C19        17.2020   23.8050   18.7000 C.3       1 SUB1        0.081
     20 N20        17.9170   24.9210   18.1120 N.am      1 SUB1       -0.255
     21 C21        18.6570   24.7060   16.9980 C.2       1 SUB1        0.320
     22 O22        18.8760   23.6180   16.3790 O.2       1 SUB1       -0.377
     23 O23        19.1820   25.9290   16.5510 O.3       1 SUB1       -0.258
     24 C24        20.2890   25.8870   15.5890 C.3       1 SUB1        0.119
     25 C25        20.1990   27.1730   14.7640 C.3       1 SUB1        0.082
     26 O26        20.7120   28.2250   15.6150 O.3       1 SUB1       -0.348
     27 C27        21.6620   27.5630   16.4550 C.3       1 SUB1        0.165
     28 O28        21.5090   27.9890   17.8050 O.3       1 SUB1       -0.351
     29 C29        21.2250   26.7880   18.5540 C.3       1 SUB1        0.051
     30 C30        21.8090   25.6060   17.7370 C.3       1 SUB1       -0.019
     31 C31        21.6130   26.1030   16.3410 C.3       1 SUB1        0.045
     32 C32        17.5850   23.7370   20.2080 C.3       1 SUB1        0.006
     33 C33        19.8570   24.5860   20.9110 C.ar      1 SUB1       -0.060
     34 C34        21.2340   24.3730   21.0570 C.ar      1 SUB1       -0.069
     35 C35        21.8300   23.1710   20.6820 C.ar      1 SUB1       -0.069
     36 C36        21.0340   22.1420   20.1670 C.ar      1 SUB1       -0.069
     37 C37        19.6680   22.3300   19.9990 C.ar      1 SUB1       -0.060
     38 C38        19.0810   23.5350   20.4250 C.ar      1 SUB1       -0.041
     39 H          11.2494   17.5658   22.4794 H         1 SUB1        0.172
     40 H          10.7546   16.8041   20.9641 H         1 SUB1        0.172
     41 H          13.1959   18.9568   22.6192 H         1 SUB1        0.052
     42 H          14.9753   20.2140   21.4008 H         1 SUB1        0.060
     43 H          13.7362   18.4080   17.6573 H         1 SUB1        0.060
     44 H          11.8778   17.2054   18.8954 H         1 SUB1        0.052
     45 H          12.9515   21.3644   17.3200 H         1 SUB1        0.048
     46 H          14.1403   20.3864   16.4063 H         1 SUB1        0.048
     47 H          13.8193   23.4083   16.1905 H         1 SUB1        0.031
     48 H          16.0727   22.6981   15.7663 H         1 SUB1        0.023
     49 H          15.4953   21.4885   14.5938 H         1 SUB1        0.023
     50 H          15.2777   23.2246   14.2623 H         1 SUB1        0.023
     51 H          12.8925   21.2287   14.3220 H         1 SUB1        0.023
     52 H          11.8650   22.2887   15.3178 H         1 SUB1        0.023
     53 H          12.8415   22.9790   13.9983 H         1 SUB1        0.023
     54 H          14.9442   22.4937   19.8715 H         1 SUB1        0.050
     55 H          13.6897   23.1152   18.8309 H         1 SUB1        0.050
     56 H          15.6778   24.0326   17.3086 H         1 SUB1        0.063
     57 H          15.7074   25.8771   18.8531 H         1 SUB1        0.210
     58 H          17.4747   22.8392   18.2746 H         1 SUB1        0.060
     59 H          17.8638   25.8502   18.5293 H         1 SUB1        0.187
     60 H          20.2449   24.9531   15.0286 H         1 SUB1        0.068
     61 H          19.1729   27.3762   14.4576 H         1 SUB1        0.059
     62 H          20.7746   27.0933   13.8418 H         1 SUB1        0.059
     63 H          22.6535   27.8518   16.1063 H         1 SUB1        0.091
     64 H          20.1519   26.6662   18.7012 H         1 SUB1        0.056
     65 H          21.6733   26.8336   19.5465 H         1 SUB1        0.056
     66 H          21.3265   24.6493   17.9373 H         1 SUB1        0.029
     67 H          22.8448   25.3696   17.9805 H         1 SUB1        0.029
     68 H          22.3601   25.5414   15.7801 H         1 SUB1        0.038
     69 H          17.0645   22.8864   20.6481 H         1 SUB1        0.045
     70 H          17.3044   24.6844   20.6683 H         1 SUB1        0.045
     71 H          19.4063   25.5442   21.1695 H         1 SUB1        0.056
     72 H          21.8538   25.1668   21.4740 H         1 SUB1        0.060
     73 H          22.9060   23.0335   20.7887 H         1 SUB1        0.056
     74 H          21.4878   21.1886   19.8964 H         1 SUB1        0.060
     75 H          19.0573   21.5516   19.5417 H         1 SUB1        0.056
@<TRIPOS>BOND
     1    2    1 1  
     2    3    2 ar 
     3    7    2 ar 
     4    4    3 ar 
     5    5    4 ar 
     6    5    6 ar 
     7    8    5 1  
     8    6    7 ar 
     9    8    9 2  
    10    8   10 2  
    11   11    8 1  
    12   11   12 1  
    13   16   11 1  
    14   12   13 1  
    15   13   14 1  
    16   13   15 1  
    17   17   16 1  
    18   17   18 1  
    19   19   17 1  
    20   19   20 1  
    21   32   19 1  
    22   20   21 am 
    23   21   22 2  
    24   21   23 1  
    25   23   24 1  
    26   24   25 1  
    27   24   31 1  
    28   25   26 1  
    29   27   26 1  
    30   27   28 1  
    31   31   27 1  
    32   29   28 1  
    33   30   29 1  
    34   31   30 1  
    35   38   32 1  
    36   33   34 ar 
    37   33   38 ar 
    38   34   35 ar 
    39   35   36 ar 
    40   36   37 ar 
    41   37   38 ar 
    42    1   39 1  
    43    1   40 1  
    44    3   41 1  
    45    4   42 1  
    46    6   43 1  
    47    7   44 1  
    48   12   45 1  
    49   12   46 1  
    50   13   47 1  
    51   14   48 1  
    52   14   49 1  
    53   14   50 1  
    54   15   51 1  
    55   15   52 1  
    56   15   53 1  
    57   16   54 1  
    58   16   55 1  
    59   17   56 1  
    60   18   57 1  
    61   19   58 1  
    62   20   59 1  
    63   24   60 1  
    64   25   61 1  
    65   25   62 1  
    66   27   63 1  
    67   29   64 1  
    68   29   65 1  
    69   30   66 1  
    70   30   67 1  
    71   31   68 1  
    72   32   69 1  
    73   32   70 1  
    74   33   71 1  
    75   34   72 1  
    76   35   73 1  
    77   36   74 1  
    78   37   75 1  
@<TRIPOS>SUBSTRUCTURE
     1 SUB1        1 GROUP

