2f8g_ligand
  -I-interpret- 

 75 78  0  0  0  0  0  0  0  0999 V2000
   11.3930   17.4080   21.4820 N   0  0  0  0  0
   12.4430   18.0070   20.8380 C   0  0  0  0  0
   13.3160   18.8320   21.5430 C   0  0  0  0  0
   14.3420   19.4980   20.8770 C   0  0  0  0  0
   14.5400   19.2250   19.5170 C   0  0  0  0  0
   13.6350   18.4830   18.7400 C   0  0  0  0  0
   12.5820   17.8360   19.4380 C   0  0  0  0  0
   15.7490   20.2650   18.6240 S   0  0  0  0  0
   16.7860   20.7570   19.6270 O   0  0  0  0  0
   16.2630   19.4170   17.4360 O   0  0  0  0  0
   14.9730   21.6620   17.8780 N   0  0  0  0  0
   13.9330   21.3620   16.8460 C   0  0  0  0  0
   13.9560   22.4270   15.7360 C   0  0  0  0  0
   15.2940   22.4620   15.0410 C   0  0  0  0  0
   12.8080   22.2160   14.7760 C   0  0  0  0  0
   14.7330   22.8000   18.8470 C   0  0  0  0  0
   15.6880   23.9740   18.3970 C   0  0  0  0  0
   15.1770   25.1080   19.0740 O   0  0  0  0  0
   17.2020   23.8050   18.7000 C   0  0  0  0  0
   17.9170   24.9210   18.1120 N   0  0  0  0  0
   18.6570   24.7060   16.9980 C   0  0  0  0  0
   18.8760   23.6180   16.3790 O   0  0  0  0  0
   19.1820   25.9290   16.5510 O   0  0  0  0  0
   20.2890   25.8870   15.5890 C   0  0  0  0  0
   20.1990   27.1730   14.7640 C   0  0  0  0  0
   20.7120   28.2250   15.6150 O   0  0  0  0  0
   21.6620   27.5630   16.4550 C   0  0  0  0  0
   21.5090   27.9890   17.8050 O   0  0  0  0  0
   21.2250   26.7880   18.5540 C   0  0  0  0  0
   21.8090   25.6060   17.7370 C   0  0  0  0  0
   21.6130   26.1030   16.3410 C   0  0  0  0  0
   17.5850   23.7370   20.2080 C   0  0  0  0  0
   19.8570   24.5860   20.9110 C   0  0  0  0  0
   21.2340   24.3730   21.0570 C   0  0  0  0  0
   21.8300   23.1710   20.6820 C   0  0  0  0  0
   21.0340   22.1420   20.1670 C   0  0  0  0  0
   19.6680   22.3300   19.9990 C   0  0  0  0  0
   19.0810   23.5350   20.4250 C   0  0  0  0  0
   11.2494   17.5658   22.4794 H   0  0  0  0  0
   10.7546   16.8041   20.9641 H   0  0  0  0  0
   13.1959   18.9568   22.6192 H   0  0  0  0  0
   14.9753   20.2140   21.4008 H   0  0  0  0  0
   13.7362   18.4080   17.6573 H   0  0  0  0  0
   11.8778   17.2054   18.8954 H   0  0  0  0  0
   12.9515   21.3644   17.3200 H   0  0  0  0  0
   14.1403   20.3864   16.4063 H   0  0  0  0  0
   13.8193   23.4083   16.1905 H   0  0  0  0  0
   16.0727   22.6981   15.7663 H   0  0  0  0  0
   15.4953   21.4885   14.5938 H   0  0  0  0  0
   15.2777   23.2246   14.2623 H   0  0  0  0  0
   12.8925   21.2287   14.3220 H   0  0  0  0  0
   11.8650   22.2887   15.3178 H   0  0  0  0  0
   12.8415   22.9790   13.9983 H   0  0  0  0  0
   14.9442   22.4937   19.8715 H   0  0  0  0  0
   13.6897   23.1152   18.8309 H   0  0  0  0  0
   15.6778   24.0326   17.3086 H   0  0  0  0  0
   15.7074   25.8771   18.8531 H   0  0  0  0  0
   17.4747   22.8392   18.2746 H   0  0  0  0  0
   17.8638   25.8502   18.5293 H   0  0  0  0  0
   20.2449   24.9531   15.0286 H   0  0  0  0  0
   19.1729   27.3762   14.4576 H   0  0  0  0  0
   20.7746   27.0933   13.8418 H   0  0  0  0  0
   22.6535   27.8518   16.1063 H   0  0  0  0  0
   20.1519   26.6662   18.7012 H   0  0  0  0  0
   21.6733   26.8336   19.5465 H   0  0  0  0  0
   21.3265   24.6493   17.9373 H   0  0  0  0  0
   22.8448   25.3696   17.9805 H   0  0  0  0  0
   22.3601   25.5414   15.7801 H   0  0  0  0  0
   17.0645   22.8864   20.6481 H   0  0  0  0  0
   17.3044   24.6844   20.6683 H   0  0  0  0  0
   19.4063   25.5442   21.1695 H   0  0  0  0  0
   21.8538   25.1668   21.4740 H   0  0  0  0  0
   22.9060   23.0335   20.7887 H   0  0  0  0  0
   21.4878   21.1886   19.8964 H   0  0  0  0  0
   19.0573   21.5516   19.5417 H   0  0  0  0  0
  2  1  1  0  0  0
  3  2  4  0  0  0
  7  2  4  0  0  0
  4  3  4  0  0  0
  5  4  4  0  0  0
  5  6  4  0  0  0
  8  5  1  0  0  0
  6  7  4  0  0  0
  8  9  2  0  0  0
  8 10  2  0  0  0
 11  8  1  0  0  0
 11 12  1  0  0  0
 16 11  1  0  0  0
 12 13  1  0  0  0
 13 14  1  0  0  0
 13 15  1  0  0  0
 17 16  1  0  0  0
 17 18  1  0  0  0
 19 17  1  0  0  0
 19 20  1  0  0  0
 32 19  1  0  0  0
 20 21  1  0  0  0
 21 22  2  0  0  0
 21 23  1  0  0  0
 23 24  1  0  0  0
 24 25  1  0  0  0
 24 31  1  0  0  0
 25 26  1  0  0  0
 27 26  1  0  0  0
 27 28  1  0  0  0
 31 27  1  0  0  0
 29 28  1  0  0  0
 30 29  1  0  0  0
 31 30  1  0  0  0
 38 32  1  0  0  0
 33 34  4  0  0  0
 33 38  4  0  0  0
 34 35  4  0  0  0
 35 36  4  0  0  0
 36 37  4  0  0  0
 37 38  4  0  0  0
  1 39  1  0  0  0
  1 40  1  0  0  0
  3 41  1  0  0  0
  4 42  1  0  0  0
  6 43  1  0  0  0
  7 44  1  0  0  0
 12 45  1  0  0  0
 12 46  1  0  0  0
 13 47  1  0  0  0
 14 48  1  0  0  0
 14 49  1  0  0  0
 14 50  1  0  0  0
 15 51  1  0  0  0
 15 52  1  0  0  0
 15 53  1  0  0  0
 16 54  1  0  0  0
 16 55  1  0  0  0
 17 56  1  0  0  0
 18 57  1  0  0  0
 19 58  1  0  0  0
 20 59  1  0  0  0
 24 60  1  0  0  0
 25 61  1  0  0  0
 25 62  1  0  0  0
 27 63  1  0  0  0
 29 64  1  0  0  0
 29 65  1  0  0  0
 30 66  1  0  0  0
 30 67  1  0  0  0
 31 68  1  0  0  0
 32 69  1  0  0  0
 32 70  1  0  0  0
 33 71  1  0  0  0
 34 72  1  0  0  0
 35 73  1  0  0  0
 36 74  1  0  0  0
 37 75  1  0  0  0
M  END
$$$$
