### 
### Created by X-TOOL on Tue Oct 25 00:09:19 2005
### 

@<TRIPOS>MOLECULE
1ndy_ligand
   42    44     1     0     0
SMALL
GAST_HUCK


@<TRIPOS>ATOM
      1 C1         50.9530   53.9590   20.7880 C.2       1 SUB1        0.064
      2 N2         51.0310   54.9480   21.7970 N.pl3     1 SUB1       -0.237
      3 C3         50.8750   54.2580   22.9380 C.2       1 SUB1        0.104
      4 N4         50.6810   52.9280   22.7430 N.2       1 SUB1       -0.310
      5 C5         50.7320   52.7880   21.3580 C.2       1 SUB1        0.090
      6 C8         50.5960   51.4430   20.7830 C.2       1 SUB1        0.189
      7 O9         50.3550   51.3630   19.6040 O.2       1 SUB1       -0.398
      8 N10        50.5600   50.3070   21.5210 N.am      1 SUB1       -0.304
      9 C13        50.9440   56.4700   21.6690 C.3       1 SUB1        0.097
     10 C14        52.4470   57.1350   21.6080 C.3       1 SUB1        0.076
     11 O15        53.3600   56.5060   22.6140 O.3       1 SUB1       -0.392
     12 C18        50.2560   56.8790   20.3720 C.3       1 SUB1       -0.009
     13 C19        48.7150   56.5170   20.5210 C.3       1 SUB1       -0.014
     14 C22        47.9560   56.7980   19.2230 C.ar      1 SUB1       -0.032
     15 C25        47.5760   58.0960   18.8840 C.ar      1 SUB1       -0.061
     16 C26        46.9220   58.3730   17.6490 C.ar      1 SUB1       -0.071
     17 C27        46.7240   57.3030   16.7260 C.ar      1 SUB1       -0.063
     18 C28        47.0980   55.9950   17.0760 C.ar      1 SUB1       -0.024
     19 C29        47.7980   55.7420   18.2740 C.ar      1 SUB1       -0.012
     20 C2         46.9520   54.9460   16.1170 C.ar      1 SUB1       -0.057
     21 C4         48.1790   54.4260   18.6170 C.ar      1 SUB1       -0.055
     22 C6         47.3560   53.6240   16.4480 C.ar      1 SUB1       -0.063
     23 C7         48.0110   53.3960   17.7090 C.ar      1 SUB1       -0.062
     24 H11        51.0578   54.1343   19.7183 H         1 SUB1        0.099
     25 H31        50.9014   54.7198   23.9239 H         1 SUB1        0.124
     26 H81        50.4656   49.4199   21.0691 H         1 SUB1        0.180
     27 H82        50.6278   50.3558   22.5175 H         1 SUB1        0.180
     28 H91        50.3791   56.8756   22.5212 H         1 SUB1        0.069
     29 H101       52.8741   56.9806   20.6062 H         1 SUB1        0.059
     30 H102       52.3791   58.2112   21.8249 H         1 SUB1        0.059
     31 H111       53.4327   55.5757   22.4360 H         1 SUB1        0.209
     32 H121       50.3634   57.9611   20.2065 H         1 SUB1        0.032
     33 H122       50.6815   56.3255   19.5220 H         1 SUB1        0.032
     34 H131       48.6117   55.4485   20.7610 H         1 SUB1        0.044
     35 H132       48.2720   57.1260   21.3228 H         1 SUB1        0.044
     36 H151       47.7817   58.9082   19.5718 H         1 SUB1        0.053
     37 H161       46.5820   59.3755   17.4154 H         1 SUB1        0.060
     38 H171       46.2849   57.4995   15.7546 H         1 SUB1        0.054
     39 H201       46.5342   55.1578   15.1394 H         1 SUB1        0.061
     40 H211       48.6038   54.2227   19.5934 H         1 SUB1        0.063
     41 H221       47.1742   52.8032   15.7637 H         1 SUB1        0.062
     42 H231       48.3773   52.4047   17.9503 H         1 SUB1        0.060
@<TRIPOS>BOND
     1    1    2 1  
     2    1    5 2  
     3    2    3 1  
     4    2    9 1  
     5    3    4 2  
     6    4    5 1  
     7    5    6 1  
     8    6    7 2  
     9    6    8 am 
    10    9   10 1  
    11    9   12 1  
    12   10   11 1  
    13   12   13 1  
    14   13   14 1  
    15   14   15 ar 
    16   14   19 ar 
    17   15   16 ar 
    18   16   17 ar 
    19   17   18 ar 
    20   18   19 ar 
    21   18   20 ar 
    22   19   21 ar 
    23   20   22 ar 
    24   21   23 ar 
    25   22   23 ar 
    26    1   24 1  
    27    3   25 1  
    28    8   26 1  
    29    8   27 1  
    30    9   28 1  
    31   10   29 1  
    32   10   30 1  
    33   11   31 1  
    34   12   32 1  
    35   12   33 1  
    36   13   34 1  
    37   13   35 1  
    38   15   36 1  
    39   16   37 1  
    40   17   38 1  
    41   20   39 1  
    42   21   40 1  
    43   22   41 1  
    44   23   42 1  
@<TRIPOS>SUBSTRUCTURE
     1 SUB1        1 GROUP

