1ndy_ligand
  -I-interpret- 

 42 44  0  0  0  0  0  0  0  0999 V2000
   50.9530   53.9590   20.7880 C   0  0  0  0  0
   51.0310   54.9480   21.7970 N   0  0  0  0  0
   50.8750   54.2580   22.9380 C   0  0  0  0  0
   50.6810   52.9280   22.7430 N   0  0  0  0  0
   50.7320   52.7880   21.3580 C   0  0  0  0  0
   50.5960   51.4430   20.7830 C   0  0  0  0  0
   50.3550   51.3630   19.6040 O   0  0  0  0  0
   50.5600   50.3070   21.5210 N   0  0  0  0  0
   50.9440   56.4700   21.6690 C   0  0  0  0  0
   52.4470   57.1350   21.6080 C   0  0  0  0  0
   53.3600   56.5060   22.6140 O   0  0  0  0  0
   50.2560   56.8790   20.3720 C   0  0  0  0  0
   48.7150   56.5170   20.5210 C   0  0  0  0  0
   47.9560   56.7980   19.2230 C   0  0  0  0  0
   47.5760   58.0960   18.8840 C   0  0  0  0  0
   46.9220   58.3730   17.6490 C   0  0  0  0  0
   46.7240   57.3030   16.7260 C   0  0  0  0  0
   47.0980   55.9950   17.0760 C   0  0  0  0  0
   47.7980   55.7420   18.2740 C   0  0  0  0  0
   46.9520   54.9460   16.1170 C   0  0  0  0  0
   48.1790   54.4260   18.6170 C   0  0  0  0  0
   47.3560   53.6240   16.4480 C   0  0  0  0  0
   48.0110   53.3960   17.7090 C   0  0  0  0  0
   51.0578   54.1343   19.7183 H   0  0  0  0  0
   50.9014   54.7198   23.9239 H   0  0  0  0  0
   50.4656   49.4199   21.0691 H   0  0  0  0  0
   50.6278   50.3558   22.5175 H   0  0  0  0  0
   50.3791   56.8756   22.5212 H   0  0  0  0  0
   52.8741   56.9806   20.6062 H   0  0  0  0  0
   52.3791   58.2112   21.8249 H   0  0  0  0  0
   53.4327   55.5757   22.4360 H   0  0  0  0  0
   50.3634   57.9611   20.2065 H   0  0  0  0  0
   50.6815   56.3255   19.5220 H   0  0  0  0  0
   48.6117   55.4485   20.7610 H   0  0  0  0  0
   48.2720   57.1260   21.3228 H   0  0  0  0  0
   47.7817   58.9082   19.5718 H   0  0  0  0  0
   46.5820   59.3755   17.4154 H   0  0  0  0  0
   46.2849   57.4995   15.7546 H   0  0  0  0  0
   46.5342   55.1578   15.1394 H   0  0  0  0  0
   48.6038   54.2227   19.5934 H   0  0  0  0  0
   47.1742   52.8032   15.7637 H   0  0  0  0  0
   48.3773   52.4047   17.9503 H   0  0  0  0  0
  1  2  1  0  0  0
  1  5  2  0  0  0
  2  3  1  0  0  0
  2  9  1  0  0  0
  3  4  2  0  0  0
  4  5  1  0  0  0
  5  6  1  0  0  0
  6  7  2  0  0  0
  6  8  1  0  0  0
  9 10  1  0  0  0
  9 12  1  0  0  0
 10 11  1  0  0  0
 12 13  1  0  0  0
 13 14  1  0  0  0
 14 15  4  0  0  0
 14 19  4  0  0  0
 15 16  4  0  0  0
 16 17  4  0  0  0
 17 18  4  0  0  0
 18 19  4  0  0  0
 18 20  4  0  0  0
 19 21  4  0  0  0
 20 22  4  0  0  0
 21 23  4  0  0  0
 22 23  4  0  0  0
  1 24  1  0  0  0
  3 25  1  0  0  0
  8 26  1  0  0  0
  8 27  1  0  0  0
  9 28  1  0  0  0
 10 29  1  0  0  0
 10 30  1  0  0  0
 11 31  1  0  0  0
 12 32  1  0  0  0
 12 33  1  0  0  0
 13 34  1  0  0  0
 13 35  1  0  0  0
 15 36  1  0  0  0
 16 37  1  0  0  0
 17 38  1  0  0  0
 20 39  1  0  0  0
 21 40  1  0  0  0
 22 41  1  0  0  0
 23 42  1  0  0  0
M  END
$$$$
