### 
### Created by X-TOOL on Sun Jun  3 11:57:57 2007
### 

@<TRIPOS>MOLECULE
2c80_ligand
   54    53     1     0     0
SMALL
GAST_HUCK


@<TRIPOS>ATOM
      1 N1        -10.8020   26.4010   -2.1630 N.4       1 SUB1        0.237
      2 CA1       -11.8480   27.0190   -2.9550 C.3       1 SUB1        0.091
      3 C1        -12.2020   26.1250   -4.1030 C.2       1 SUB1        0.393
      4 O11       -11.3120   25.5120   -4.7300 O.2       1 SUB1       -0.256
      5 O12       -13.3910   26.0020   -4.4530 O.2       1 SUB1       -0.256
      6 CB1       -11.3810   28.3670   -3.4990 C.3       1 SUB1        0.024
      7 CG1       -12.5510   29.1780   -4.0660 C.3       1 SUB1        0.044
      8 CD1       -12.0830   30.5440   -4.5110 C.2       1 SUB1        0.179
      9 OE1       -10.8900   31.0810   -3.9970 O.2       1 SUB1       -0.397
     10 N2        -12.8450   31.1940   -5.3940 N.am      1 SUB1       -0.265
     11 CA2       -12.4440   32.4530   -6.0040 C.3       1 SUB1        0.140
     12 C2        -13.5910   33.4080   -6.0840 C.2       1 SUB1        0.204
     13 O2        -14.8890   32.9090   -6.2870 O.2       1 SUB1       -0.394
     14 CB2       -11.8360   32.2500   -7.3980 C.3       1 SUB1        0.034
     15 SG2       -10.8320   30.7390   -7.5330 S.3       1 SUB1       -0.156
     16 C1S        -9.4230   31.5750   -6.7570 C.3       1 SUB1       -0.006
     17 C2S        -8.2020   30.6740   -6.6170 C.3       1 SUB1       -0.044
     18 C3S        -7.0830   31.1900   -7.5150 C.3       1 SUB1       -0.052
     19 C4S        -6.8780   30.2820   -8.7220 C.3       1 SUB1       -0.053
     20 C5S        -6.3350   31.0750   -9.9060 C.3       1 SUB1       -0.056
     21 C6S        -5.3730   30.2420  -10.7490 C.3       1 SUB1       -0.065
     22 N3        -13.3060   34.7030   -5.9620 N.am      1 SUB1       -0.267
     23 CA3       -14.2730   35.7360   -6.2850 C.3       1 SUB1        0.143
     24 C3        -14.8700   36.3120   -5.0280 C.2       1 SUB1        0.367
     25 O31       -15.8330   37.1040   -5.0750 O.2       1 SUB1       -0.260
     26 O32       -14.3960   36.0010   -3.9170 O.2       1 SUB1       -0.260
     27 H         -11.1312   25.5031   -1.8084 H         1 SUB1        0.201
     28 H          -9.9770   26.2562   -2.7451 H         1 SUB1        0.201
     29 H         -10.5647   27.0106   -1.3804 H         1 SUB1        0.201
     30 H         -12.7197   27.1736   -2.3191 H         1 SUB1        0.108
     31 H         -10.6645   28.1870   -4.3005 H         1 SUB1        0.036
     32 H         -10.9318   28.9325   -2.6826 H         1 SUB1        0.036
     33 H         -13.3068   29.2985   -3.2899 H         1 SUB1        0.051
     34 H         -12.9650   28.6490   -4.9244 H         1 SUB1        0.051
     35 H         -13.7460   30.7912   -5.6518 H         1 SUB1        0.188
     36 H         -11.6756   32.8790   -5.3589 H         1 SUB1        0.081
     37 H         -11.1821   33.0987   -7.5987 H         1 SUB1        0.042
     38 H         -12.6595   32.1624   -8.1067 H         1 SUB1        0.042
     39 H          -9.7275   31.8807   -5.7560 H         1 SUB1        0.038
     40 H          -9.1446   32.4164   -7.3915 H         1 SUB1        0.038
     41 H          -8.4648   29.6580   -6.9118 H         1 SUB1        0.027
     42 H          -7.8658   30.6766   -5.5801 H         1 SUB1        0.027
     43 H          -6.1585   31.2142   -6.9381 H         1 SUB1        0.027
     44 H          -7.3541   32.1840   -7.8707 H         1 SUB1        0.027
     45 H          -7.8365   29.8440   -9.0007 H         1 SUB1        0.026
     46 H          -6.1611   29.5038   -8.4602 H         1 SUB1        0.026
     47 H          -5.7944   31.9399   -9.5215 H         1 SUB1        0.026
     48 H          -7.1744   31.3718  -10.5348 H         1 SUB1        0.026
     49 H          -4.5319   29.9256  -10.1321 H         1 SUB1        0.023
     50 H          -5.8941   29.3648  -11.1325 H         1 SUB1        0.023
     51 H          -5.0085   30.8428  -11.5822 H         1 SUB1        0.023
     52 H         -12.3807   34.9771   -5.6318 H         1 SUB1        0.188
     53 H         -15.0696   35.2992   -6.8873 H         1 SUB1        0.074
     54 H         -13.7705   36.5317   -6.8350 H         1 SUB1        0.074
@<TRIPOS>BOND
     1    1    2 1  
     2    2    3 1  
     3    2    6 1  
     4    3    4 2  
     5    3    5 2  
     6    6    7 1  
     7    7    8 1  
     8    8    9 2  
     9    8   10 am 
    10   10   11 1  
    11   11   12 1  
    12   11   14 1  
    13   12   13 2  
    14   12   22 am 
    15   14   15 1  
    16   15   16 1  
    17   16   17 1  
    18   17   18 1  
    19   18   19 1  
    20   19   20 1  
    21   20   21 1  
    22   22   23 1  
    23   23   24 1  
    24   24   25 2  
    25   24   26 2  
    26    1   27 1  
    27    1   28 1  
    28    1   29 1  
    29    2   30 1  
    30    6   31 1  
    31    6   32 1  
    32    7   33 1  
    33    7   34 1  
    34   10   35 1  
    35   11   36 1  
    36   14   37 1  
    37   14   38 1  
    38   16   39 1  
    39   16   40 1  
    40   17   41 1  
    41   17   42 1  
    42   18   43 1  
    43   18   44 1  
    44   19   45 1  
    45   19   46 1  
    46   20   47 1  
    47   20   48 1  
    48   21   49 1  
    49   21   50 1  
    50   21   51 1  
    51   22   52 1  
    52   23   53 1  
    53   23   54 1  
@<TRIPOS>SUBSTRUCTURE
     1 SUB1        1 GROUP

