2c80_ligand
  -I-interpret- 

 54 53  0  0  0  0  0  0  0  0999 V2000
  -10.8020   26.4010   -2.1630 N   0  3  0  0  0
  -11.8480   27.0190   -2.9550 C   0  0  0  0  0
  -12.2020   26.1250   -4.1030 C   0  0  0  0  0
  -11.3120   25.5120   -4.7300 O   0  5  0  0  0
  -13.3910   26.0020   -4.4530 O   0  0  0  0  0
  -11.3810   28.3670   -3.4990 C   0  0  0  0  0
  -12.5510   29.1780   -4.0660 C   0  0  0  0  0
  -12.0830   30.5440   -4.5110 C   0  0  0  0  0
  -10.8900   31.0810   -3.9970 O   0  0  0  0  0
  -12.8450   31.1940   -5.3940 N   0  0  0  0  0
  -12.4440   32.4530   -6.0040 C   0  0  0  0  0
  -13.5910   33.4080   -6.0840 C   0  0  0  0  0
  -14.8890   32.9090   -6.2870 O   0  0  0  0  0
  -11.8360   32.2500   -7.3980 C   0  0  0  0  0
  -10.8320   30.7390   -7.5330 S   0  0  0  0  0
   -9.4230   31.5750   -6.7570 C   0  0  0  0  0
   -8.2020   30.6740   -6.6170 C   0  0  0  0  0
   -7.0830   31.1900   -7.5150 C   0  0  0  0  0
   -6.8780   30.2820   -8.7220 C   0  0  0  0  0
   -6.3350   31.0750   -9.9060 C   0  0  0  0  0
   -5.3730   30.2420  -10.7490 C   0  0  0  0  0
  -13.3060   34.7030   -5.9620 N   0  0  0  0  0
  -14.2730   35.7360   -6.2850 C   0  0  0  0  0
  -14.8700   36.3120   -5.0280 C   0  0  0  0  0
  -15.8330   37.1040   -5.0750 O   0  5  0  0  0
  -14.3960   36.0010   -3.9170 O   0  0  0  0  0
  -11.1312   25.5031   -1.8084 H   0  0  0  0  0
   -9.9770   26.2562   -2.7451 H   0  0  0  0  0
  -10.5647   27.0106   -1.3804 H   0  0  0  0  0
  -12.7197   27.1736   -2.3191 H   0  0  0  0  0
  -10.6645   28.1870   -4.3005 H   0  0  0  0  0
  -10.9318   28.9325   -2.6826 H   0  0  0  0  0
  -13.3068   29.2985   -3.2899 H   0  0  0  0  0
  -12.9650   28.6490   -4.9244 H   0  0  0  0  0
  -13.7460   30.7912   -5.6518 H   0  0  0  0  0
  -11.6756   32.8790   -5.3589 H   0  0  0  0  0
  -11.1821   33.0987   -7.5987 H   0  0  0  0  0
  -12.6595   32.1624   -8.1067 H   0  0  0  0  0
   -9.7275   31.8807   -5.7560 H   0  0  0  0  0
   -9.1446   32.4164   -7.3915 H   0  0  0  0  0
   -8.4648   29.6580   -6.9118 H   0  0  0  0  0
   -7.8658   30.6766   -5.5801 H   0  0  0  0  0
   -6.1585   31.2142   -6.9381 H   0  0  0  0  0
   -7.3541   32.1840   -7.8707 H   0  0  0  0  0
   -7.8365   29.8440   -9.0007 H   0  0  0  0  0
   -6.1611   29.5038   -8.4602 H   0  0  0  0  0
   -5.7944   31.9399   -9.5215 H   0  0  0  0  0
   -7.1744   31.3718  -10.5348 H   0  0  0  0  0
   -4.5319   29.9256  -10.1321 H   0  0  0  0  0
   -5.8941   29.3648  -11.1325 H   0  0  0  0  0
   -5.0085   30.8428  -11.5822 H   0  0  0  0  0
  -12.3807   34.9771   -5.6318 H   0  0  0  0  0
  -15.0696   35.2992   -6.8873 H   0  0  0  0  0
  -13.7705   36.5317   -6.8350 H   0  0  0  0  0
  1  2  1  0  0  0
  2  3  1  0  0  0
  2  6  1  0  0  0
  3  4  1  0  0  0
  3  5  2  0  0  0
  6  7  1  0  0  0
  7  8  1  0  0  0
  8  9  2  0  0  0
  8 10  1  0  0  0
 10 11  1  0  0  0
 11 12  1  0  0  0
 11 14  1  0  0  0
 12 13  2  0  0  0
 12 22  1  0  0  0
 14 15  1  0  0  0
 15 16  1  0  0  0
 16 17  1  0  0  0
 17 18  1  0  0  0
 18 19  1  0  0  0
 19 20  1  0  0  0
 20 21  1  0  0  0
 22 23  1  0  0  0
 23 24  1  0  0  0
 24 25  1  0  0  0
 24 26  2  0  0  0
  1 27  1  0  0  0
  1 28  1  0  0  0
  1 29  1  0  0  0
  2 30  1  0  0  0
  6 31  1  0  0  0
  6 32  1  0  0  0
  7 33  1  0  0  0
  7 34  1  0  0  0
 10 35  1  0  0  0
 11 36  1  0  0  0
 14 37  1  0  0  0
 14 38  1  0  0  0
 16 39  1  0  0  0
 16 40  1  0  0  0
 17 41  1  0  0  0
 17 42  1  0  0  0
 18 43  1  0  0  0
 18 44  1  0  0  0
 19 45  1  0  0  0
 19 46  1  0  0  0
 20 47  1  0  0  0
 20 48  1  0  0  0
 21 49  1  0  0  0
 21 50  1  0  0  0
 21 51  1  0  0  0
 22 52  1  0  0  0
 23 53  1  0  0  0
 23 54  1  0  0  0
M  END
$$$$
