2j7g_ligand
  -I-interpret- 

 31 32  0  0  0  0  0  0  0  0999 V2000
   -2.0290    9.3280   13.8130 C   0  0  0  0  0
   -0.9850   10.7530   10.6690 C   0  0  0  0  0
    0.0050   11.5230    9.7990 C   0  0  0  0  0
   -0.5790   11.7990    8.4110 C   0  0  0  0  0
   -1.3710   10.5560    7.9290 C   0  0  0  0  0
   -2.6280   10.3660    8.8320 C   0  0  0  0  0
   -3.5440    9.2260    8.4010 C   0  0  0  0  0
    0.3680   12.7580   10.4240 O   0  0  0  0  0
    0.5410   12.0790    7.5940 O   0  0  0  0  0
   -1.8180   10.7610    6.6050 O   0  0  0  0  0
   -2.2060   10.1920   10.2360 N   0  0  0  0  0
   -2.9030    7.9790    8.6380 O   0  0  0  0  0
   -0.8660   10.4410   11.9350 N   0  0  0  0  0
   -1.9140    9.7170   12.3320 C   0  0  0  0  0
   -2.7480    9.5700   11.2990 C   0  0  0  0  0
   -1.4910    7.9810   14.2360 C   0  0  0  0  0
   -0.3590    7.6630   13.8490 O   0  0  0  0  0
   -2.2270    7.3170   14.9960 O   0  5  0  0  0
   -3.0985    9.2903   14.0200 H   0  0  0  0  0
   -1.4293   10.0613   14.3521 H   0  0  0  0  0
    0.8955   10.9049    9.6842 H   0  0  0  0  0
   -1.2826   12.6313    8.3917 H   0  0  0  0  0
   -0.7223    9.6815    7.9794 H   0  0  0  0  0
   -3.2257   11.2711    8.7234 H   0  0  0  0  0
   -3.7643    9.3223    7.3378 H   0  0  0  0  0
   -4.4699    9.2706    8.9744 H   0  0  0  0  0
    1.0239   13.2070    9.8858 H   0  0  0  0  0
    0.2466   12.2459    6.6956 H   0  0  0  0  0
   -1.0605   10.8810    6.0277 H   0  0  0  0  0
   -2.7074    7.8938    9.5740 H   0  0  0  0  0
   -3.7001    9.0395   11.3144 H   0  0  0  0  0
 14  1  1  0  0  0
  1 16  1  0  0  0
  2  3  1  0  0  0
  2 11  1  0  0  0
 13  2  2  0  0  0
  3  4  1  0  0  0
  3  8  1  0  0  0
  4  5  1  0  0  0
  4  9  1  0  0  0
  6  5  1  0  0  0
  5 10  1  0  0  0
  6  7  1  0  0  0
 11  6  1  0  0  0
  7 12  1  0  0  0
 11 15  1  0  0  0
 13 14  1  0  0  0
 14 15  2  0  0  0
 16 17  2  0  0  0
 16 18  1  0  0  0
  1 19  1  0  0  0
  1 20  1  0  0  0
  3 21  1  0  0  0
  4 22  1  0  0  0
  5 23  1  0  0  0
  6 24  1  0  0  0
  7 25  1  0  0  0
  7 26  1  0  0  0
  8 27  1  0  0  0
  9 28  1  0  0  0
 10 29  1  0  0  0
 12 30  1  0  0  0
 15 31  1  0  0  0
M  END
$$$$
