### 
### Created by X-TOOL on Sun Jun  3 11:32:12 2007
### 

@<TRIPOS>MOLECULE
2j7g_ligand
   31    32     1     0     0
SMALL
GAST_HUCK


@<TRIPOS>ATOM
      1 C1         -2.0290    9.3280   13.8130 C.3       1 SUB1        0.082
      2 C1B        -0.9850   10.7530   10.6690 C.2       1 SUB1        0.233
      3 C2B         0.0050   11.5230    9.7990 C.3       1 SUB1        0.194
      4 C3B        -0.5790   11.7990    8.4110 C.3       1 SUB1        0.137
      5 C4B        -1.3710   10.5560    7.9290 C.3       1 SUB1        0.123
      6 C5B        -2.6280   10.3660    8.8320 C.3       1 SUB1        0.145
      7 C6B        -3.5440    9.2260    8.4010 C.3       1 SUB1        0.080
      8 O2B         0.3680   12.7580   10.4240 O.3       1 SUB1       -0.356
      9 O3B         0.5410   12.0790    7.5940 O.3       1 SUB1       -0.382
     10 O4B        -1.8180   10.7610    6.6050 O.3       1 SUB1       -0.385
     11 N1B        -2.2060   10.1920   10.2360 N.pl3     1 SUB1       -0.141
     12 O6B        -2.9030    7.9790    8.6380 O.3       1 SUB1       -0.392
     13 N2B        -0.8660   10.4410   11.9350 N.2       1 SUB1       -0.211
     14 C7B        -1.9140    9.7170   12.3320 C.2       1 SUB1        0.144
     15 C8B        -2.7480    9.5700   11.2990 C.2       1 SUB1        0.172
     16 C2         -1.4910    7.9810   14.2360 C.2       1 SUB1        0.062
     17 O1         -0.3590    7.6630   13.8490 O.2       1 SUB1       -0.563
     18 O5         -2.2270    7.3170   14.9960 O.2       1 SUB1       -0.563
     19 H          -3.0985    9.2903   14.0200 H         1 SUB1        0.078
     20 H          -1.4293   10.0613   14.3521 H         1 SUB1        0.078
     21 H           0.8955   10.9049    9.6842 H         1 SUB1        0.105
     22 H          -1.2826   12.6313    8.3917 H         1 SUB1        0.070
     23 H          -0.7223    9.6815    7.9794 H         1 SUB1        0.066
     24 H          -3.2257   11.2711    8.7234 H         1 SUB1        0.074
     25 H          -3.7643    9.3223    7.3378 H         1 SUB1        0.059
     26 H          -4.4699    9.2706    8.9744 H         1 SUB1        0.059
     27 H           1.0239   13.2070    9.8858 H         1 SUB1        0.217
     28 H           0.2466   12.2459    6.6956 H         1 SUB1        0.211
     29 H          -1.0605   10.8810    6.0277 H         1 SUB1        0.210
     30 H          -2.7074    7.8938    9.5740 H         1 SUB1        0.209
     31 H          -3.7001    9.0395   11.3144 H         1 SUB1        0.185
@<TRIPOS>BOND
     1   14    1 1  
     2    1   16 1  
     3    2    3 1  
     4    2   11 1  
     5   13    2 2  
     6    3    4 1  
     7    3    8 1  
     8    4    5 1  
     9    4    9 1  
    10    6    5 1  
    11    5   10 1  
    12    6    7 1  
    13   11    6 1  
    14    7   12 1  
    15   11   15 1  
    16   13   14 1  
    17   14   15 2  
    18   16   17 2  
    19   16   18 2  
    20    1   19 1  
    21    1   20 1  
    22    3   21 1  
    23    4   22 1  
    24    5   23 1  
    25    6   24 1  
    26    7   25 1  
    27    7   26 1  
    28    8   27 1  
    29    9   28 1  
    30   10   29 1  
    31   12   30 1  
    32   15   31 1  
@<TRIPOS>SUBSTRUCTURE
     1 SUB1        1 GROUP

