### 
### Created by X-TOOL on Mon Oct 24 22:06:25 2005
### 

@<TRIPOS>MOLECULE
1owe_ligand
   38    40     1     0     0
SMALL
GAST_HUCK


@<TRIPOS>ATOM
      1 N18        16.9100   19.4810   33.7500 N.pl3     1 SUB1       -0.200
      2 C17        18.2190   19.7910   33.9580 C.cat     1 SUB1        0.317
      3 N19        18.6640   20.9890   34.4480 N.pl3     1 SUB1       -0.200
      4 C12        19.1860   18.7150   33.5770 C.ar      1 SUB1        0.188
      5 C11        18.9160   17.6690   32.6200 C.ar      1 SUB1       -0.005
      6 C10        19.7700   16.5850   32.2740 C.ar      1 SUB1       -0.047
      7 C2         21.0350   16.5470   32.9080 C.ar      1 SUB1       -0.011
      8 C1         21.9800   15.5860   32.5700 C.ar      1 SUB1       -0.032
      9 C6         23.3190   15.5600   33.1020 C.ar      1 SUB1        0.056
     10 C5         23.5420   16.6870   34.0250 C.ar      1 SUB1       -0.043
     11 C4         22.6570   17.6790   34.3910 C.ar      1 SUB1       -0.051
     12 C3         21.4130   17.5940   33.8380 C.ar      1 SUB1       -0.011
     13 C13        20.5120   18.5880   34.1190 C.ar      1 SUB1        0.002
     14 C23        24.3420   14.5750   32.7800 C.2       1 SUB1        0.232
     15 O36        25.1790   14.3330   33.6420 O.2       1 SUB1       -0.373
     16 N24        24.3970   14.1850   31.4660 N.am      1 SUB1       -0.233
     17 C25        25.3720   13.3340   30.9910 C.ar      1 SUB1        0.066
     18 C30        25.8210   13.7000   29.7180 C.ar      1 SUB1       -0.041
     19 C29        26.7490   12.8940   29.0580 C.ar      1 SUB1       -0.075
     20 C28        27.2650   11.7530   29.7480 C.ar      1 SUB1       -0.077
     21 C27        26.9000   11.4270   31.0520 C.ar      1 SUB1       -0.075
     22 C26        25.9430   12.2340   31.6880 C.ar      1 SUB1       -0.041
     23 H11        16.6528   18.5558   33.3775 H         1 SUB1        0.192
     24 H12        16.1767   20.1716   33.9651 H         1 SUB1        0.192
     25 H31        19.6731   21.1493   34.5782 H         1 SUB1        0.192
     26 H32        17.9898   21.7302   34.6866 H         1 SUB1        0.192
     27 H51        17.9603   17.7141   32.1103 H         1 SUB1        0.067
     28 H61        19.4673   15.8266   31.5610 H         1 SUB1        0.064
     29 H81        21.6939   14.8124   31.8666 H         1 SUB1        0.069
     30 H101       24.5273   16.7433   34.4733 H         1 SUB1        0.065
     31 H111       22.9320   18.4747   35.0738 H         1 SUB1        0.063
     32 H131       20.8300   19.3531   34.8180 H         1 SUB1        0.067
     33 H161       23.7060   14.5299   30.8307 H         1 SUB1        0.225
     34 H181       25.4506   14.6036   29.2475 H         1 SUB1        0.050
     35 H191       27.0702   13.1266   28.0491 H         1 SUB1        0.058
     36 H201       27.9721   11.1128   29.2331 H         1 SUB1        0.049
     37 H211       27.3409   10.5769   31.5600 H         1 SUB1        0.058
     38 H221       25.6406   12.0192   32.7066 H         1 SUB1        0.050
@<TRIPOS>BOND
     1    1    2 1  
     2    2    3 1  
     3    2    4 1  
     4    4    5 ar 
     5    4   13 ar 
     6    5    6 ar 
     7    6    7 ar 
     8    7    8 ar 
     9    7   12 ar 
    10    8    9 ar 
    11    9   10 ar 
    12    9   14 1  
    13   10   11 ar 
    14   11   12 ar 
    15   12   13 ar 
    16   14   15 2  
    17   14   16 am 
    18   16   17 1  
    19   17   18 ar 
    20   17   22 ar 
    21   18   19 ar 
    22   19   20 ar 
    23   20   21 ar 
    24   21   22 ar 
    25    1   23 1  
    26    1   24 1  
    27    3   25 1  
    28    3   26 1  
    29    5   27 1  
    30    6   28 1  
    31    8   29 1  
    32   10   30 1  
    33   11   31 1  
    34   13   32 1  
    35   16   33 1  
    36   18   34 1  
    37   19   35 1  
    38   20   36 1  
    39   21   37 1  
    40   22   38 1  
@<TRIPOS>SUBSTRUCTURE
     1 SUB1        1 GROUP

