1z1r_ligand
  -I-interpret- 

 81 83  0  0  0  0  0  0  0  0999 V2000
    5.6850   -0.2960   14.4600 C   0  0  0  0  0
    7.1250    0.2420   14.3620 C   0  0  0  0  0
    7.4020    0.9190   13.0430 C   0  0  0  0  0
    7.7330    0.7960   10.6500 C   0  0  0  0  0
    7.5870    0.1730   11.8780 C   0  0  0  0  0
    6.5490    2.8780    8.7310 C   0  0  0  0  0
    5.7610    4.0910    9.2080 C   0  0  0  0  0
    4.3070    3.7750    9.3580 C   0  0  0  0  0
    3.9320    3.3170   10.7640 C   0  0  0  0  0
    3.1990    1.4620   12.2020 C   0  0  0  0  0
    4.0640    0.3480   12.7220 C   0  0  0  0  0
    6.2170   -2.8610   15.9850 N   0  0  0  0  0
    5.2270   -3.6060   16.7740 C   0  0  0  0  0
    1.6910   -4.4470   15.4200 C   0  0  0  0  0
    3.0420   -5.5150   17.2380 C   0  0  0  0  0
    8.2900   -4.5910   15.9910 C   0  0  0  0  0
    7.3740    2.3070   12.9430 C   0  0  0  0  0
    7.5200    2.9430   11.7220 C   0  0  0  0  0
    7.6920    2.1800   10.5770 C   0  0  0  0  0
    7.8190    2.8080    9.3610 O   0  0  0  0  0
    3.9510    4.1070   11.7290 O   0  0  0  0  0
    3.6480    2.0210   10.9110 N   0  0  0  0  0
    1.7660    0.9750   12.0350 C   0  0  0  0  0
    0.8690    2.0680   11.5360 C   0  0  0  0  0
    0.4180    2.9210   12.3060 O   0  0  0  0  0
    0.8040    2.1970   10.2320 N   0  0  0  0  0
    4.0400   -0.7810   12.2170 O   0  0  0  0  0
    4.7750    0.6520   13.7970 N   0  0  0  0  0
    5.3000   -0.5290   15.9290 C   0  0  0  0  0
    5.3350    0.7120   16.6410 O   0  0  0  0  0
    6.2590   -1.5220   16.5990 C   0  0  0  0  0
    4.0360   -3.7100   15.8310 C   0  0  0  0  0
    2.7570   -4.2270   16.4850 C   0  0  0  0  0
    7.3120   -3.6550   15.0540 S   0  0  0  0  0
    8.1270   -2.6700   14.3560 O   0  0  0  0  0
    6.6060   -4.4850   14.0820 O   0  0  0  0  0
    9.3220   -4.0080   16.7210 C   0  0  0  0  0
   10.1600   -4.7870   17.5150 C   0  0  0  0  0
    9.9680   -6.1650   17.5780 C   0  0  0  0  0
    8.9390   -6.7590   16.8530 C   0  0  0  0  0
    8.1050   -5.9700   16.0630 C   0  0  0  0  0
    5.6296   -1.2599   13.9329 H   0  0  0  0  0
    7.8242   -0.5989   14.4802 H   0  0  0  0  0
    7.2855    0.9690   15.1718 H   0  0  0  0  0
    7.8783    0.2060    9.7523 H   0  0  0  0  0
    7.6168   -0.9091   11.9353 H   0  0  0  0  0
    6.6923    2.9491    7.6427 H   0  0  0  0  0
    5.9810    1.9661    8.9673 H   0  0  0  0  0
    5.8766    4.9032    8.4752 H   0  0  0  0  0
    6.1585    4.4156   10.1809 H   0  0  0  0  0
    4.0486    2.9744    8.6493 H   0  0  0  0  0
    3.7267    4.6782    9.1185 H   0  0  0  0  0
    3.2142    2.2714   12.9468 H   0  0  0  0  0
    4.9586   -3.0577   17.6890 H   0  0  0  0  0
    5.6060   -4.6033   17.0419 H   0  0  0  0  0
    0.7708   -4.8194   15.8938 H   0  0  0  0  0
    2.0509   -5.1849   14.6879 H   0  0  0  0  0
    1.4812   -3.4957   14.9091 H   0  0  0  0  0
    3.8135   -5.3311   18.0002 H   0  0  0  0  0
    3.3982   -6.2807   16.5332 H   0  0  0  0  0
    2.1208   -5.8660   17.7260 H   0  0  0  0  0
    7.2352    2.9016   13.8387 H   0  0  0  0  0
    7.5001    4.0251   11.6617 H   0  0  0  0  0
    3.7420    1.4110   10.1242 H   0  0  0  0  0
    1.3926    0.6223   13.0077 H   0  0  0  0  0
    1.7524    0.1444   11.3140 H   0  0  0  0  0
    0.2253    2.9054    9.8279 H   0  0  0  0  0
    1.3332    1.5870    9.6422 H   0  0  0  0  0
    4.6893    1.5727   14.1778 H   0  0  0  0  0
    4.2797   -0.9383   15.9671 H   0  0  0  0  0
    5.0963    0.5622   17.5482 H   0  0  0  0  0
    7.2836   -1.1302   16.5175 H   0  0  0  0  0
    5.9847   -1.6135   17.6603 H   0  0  0  0  0
    4.3042   -4.3937   15.0121 H   0  0  0  0  0
    3.8328   -2.7094   15.4217 H   0  0  0  0  0
    2.3928   -3.4744   17.1998 H   0  0  0  0  0
    9.4750   -2.9360   16.6709 H   0  0  0  0  0
   10.9587   -4.3225   18.0819 H   0  0  0  0  0
   10.6204   -6.7753   18.1920 H   0  0  0  0  0
    8.7869   -7.8311   16.9027 H   0  0  0  0  0
    7.3041   -6.4340   15.4987 H   0  0  0  0  0
  1  2  1  0  0  0
  1 28  1  0  0  0
 29  1  1  0  0  0
  2  3  1  0  0  0
  3  5  4  0  0  0
  3 17  4  0  0  0
  5  4  4  0  0  0
  4 19  4  0  0  0
  7  6  1  0  0  0
 20  6  1  0  0  0
  8  7  1  0  0  0
  9  8  1  0  0  0
  9 21  2  0  0  0
 22  9  1  0  0  0
 11 10  1  0  0  0
 10 22  1  0  0  0
 10 23  1  0  0  0
 11 27  2  0  0  0
 28 11  1  0  0  0
 13 12  1  0  0  0
 12 31  1  0  0  0
 12 34  1  0  0  0
 32 13  1  0  0  0
 33 14  1  0  0  0
 33 15  1  0  0  0
 34 16  1  0  0  0
 16 37  4  0  0  0
 16 41  4  0  0  0
 17 18  4  0  0  0
 18 19  4  0  0  0
 19 20  1  0  0  0
 23 24  1  0  0  0
 24 25  2  0  0  0
 24 26  1  0  0  0
 29 30  1  0  0  0
 31 29  1  0  0  0
 32 33  1  0  0  0
 34 35  2  0  0  0
 34 36  2  0  0  0
 37 38  4  0  0  0
 38 39  4  0  0  0
 39 40  4  0  0  0
 40 41  4  0  0  0
  1 42  1  0  0  0
  2 43  1  0  0  0
  2 44  1  0  0  0
  4 45  1  0  0  0
  5 46  1  0  0  0
  6 47  1  0  0  0
  6 48  1  0  0  0
  7 49  1  0  0  0
  7 50  1  0  0  0
  8 51  1  0  0  0
  8 52  1  0  0  0
 10 53  1  0  0  0
 13 54  1  0  0  0
 13 55  1  0  0  0
 14 56  1  0  0  0
 14 57  1  0  0  0
 14 58  1  0  0  0
 15 59  1  0  0  0
 15 60  1  0  0  0
 15 61  1  0  0  0
 17 62  1  0  0  0
 18 63  1  0  0  0
 22 64  1  0  0  0
 23 65  1  0  0  0
 23 66  1  0  0  0
 26 67  1  0  0  0
 26 68  1  0  0  0
 28 69  1  0  0  0
 29 70  1  0  0  0
 30 71  1  0  0  0
 31 72  1  0  0  0
 31 73  1  0  0  0
 32 74  1  0  0  0
 32 75  1  0  0  0
 33 76  1  0  0  0
 37 77  1  0  0  0
 38 78  1  0  0  0
 39 79  1  0  0  0
 40 80  1  0  0  0
 41 81  1  0  0  0
M  END
$$$$
