### 
### Created by X-TOOL on Mon Oct 24 23:19:36 2005
### 

@<TRIPOS>MOLECULE
1wc1_ligand
   44    46     1     0     0
SMALL
GAST_HUCK


@<TRIPOS>ATOM
      1 PG         40.5190   47.8320  147.9490 P.3       1 SUB1        0.143
      2 O1G        41.6640   47.8270  146.9750 O.co2     1 SUB1       -0.614
      3 O2G        39.3960   48.7200  147.4920 O.co2     1 SUB1       -0.614
      4 O3G        41.0350   48.2910  149.2890 O.co2     1 SUB1       -0.614
      5 PB         39.1140   45.4850  147.1780 P.3       1 SUB1        0.354
      6 O1B        38.4190   46.3790  146.1660 O.co2     1 SUB1       -0.497
      7 O2B        39.9460   44.4050  146.4510 O.co2     1 SUB1       -0.497
      8 O3B        40.0710   46.3350  148.1050 O.3       1 SUB1       -0.297
      9 PA         36.7350   44.1400  147.8650 P.3       1 SUB1        0.319
     10 S1A        35.3260   45.0220  148.9590 S.3       1 SUB1       -0.064
     11 O2A        36.4220   44.2340  146.3540 O.co2     1 SUB1       -0.490
     12 O3A        38.1040   44.8250  148.2230 O.3       1 SUB1       -0.189
     13 UNK_13     36.9100   42.6540  148.2900 O.3       1 SUB1       -0.283
     14 UNK_14     38.0320   41.8880  147.7770 C.3       1 SUB1        0.102
     15 UNK_15     37.5420   40.7210  146.9720 C.3       1 SUB1        0.118
     16 UNK_16     36.6960   39.8850  147.8570 O.3       1 SUB1       -0.336
     17 UNK_17     36.6170   41.1570  145.8390 C.3       1 SUB1        0.115
     18 UNK_18     37.3390   41.4990  144.6490 O.3       1 SUB1       -0.386
     19 UNK_19     35.7580   39.9830  145.6720 C.3       1 SUB1        0.139
     20 UNK_20     36.4480   39.0200  144.8700 O.3       1 SUB1       -0.384
     21 UNK_21     35.5110   39.4850  147.0970 C.3       1 SUB1        0.201
     22 N9         34.2760   40.1110  147.7010 N.pl3     1 SUB1       -0.192
     23 C8         34.1800   40.9640  148.7480 C.2       1 SUB1        0.112
     24 N7         32.9070   41.3290  149.0440 N.2       1 SUB1       -0.296
     25 C5         32.1850   40.6780  148.1440 C.ar      1 SUB1        0.105
     26 C6         30.7970   40.6240  147.9190 C.ar      1 SUB1        0.130
     27 N6         29.9170   41.2860  148.6600 N.pl3     1 SUB1       -0.315
     28 N1         30.3290   39.8270  146.8520 N.ar      1 SUB1       -0.270
     29 C2         31.2690   39.1200  146.0780 C.ar      1 SUB1        0.053
     30 N3         32.5910   39.0990  146.2240 N.ar      1 SUB1       -0.271
     31 C4         32.9980   39.8980  147.2740 C.ar      1 SUB1        0.161
     32 H141       38.6353   41.5195  148.6198 H         1 SUB1        0.064
     33 H142       38.6511   42.5350  147.1381 H         1 SUB1        0.064
     34 H151       38.3957   40.1513  146.5763 H         1 SUB1        0.065
     35 H171       36.0186   42.0282  146.1438 H         1 SUB1        0.065
     36 H181       37.8335   40.7442  144.3521 H         1 SUB1        0.210
     37 H191       34.8069   40.2517  145.1891 H         1 SUB1        0.068
     38 H201       36.6455   39.3993  144.0216 H         1 SUB1        0.210
     39 H211       35.4016   38.3905  147.1020 H         1 SUB1        0.100
     40 H231       35.0455   41.3243  149.3021 H         1 SUB1        0.135
     41 H271       28.9107   41.2124  148.4531 H         1 SUB1        0.182
     42 H272       30.2404   41.8733  149.4419 H         1 SUB1        0.182
     43 H291       30.8680   38.5222  145.2675 H         1 SUB1        0.100
     44 H101       35.5615   44.9420  149.9359 H         1 SUB1        0.115
@<TRIPOS>BOND
     1    1    2 2  
     2    1    3 2  
     3    1    4 2  
     4    8    1 1  
     5    5    6 2  
     6    5    7 2  
     7    5    8 1  
     8   12    5 1  
     9    9   10 1  
    10    9   11 2  
    11    9   12 1  
    12    9   13 1  
    13   13   14 1  
    14   14   15 1  
    15   15   16 1  
    16   15   17 1  
    17   16   21 1  
    18   17   18 1  
    19   17   19 1  
    20   19   20 1  
    21   19   21 1  
    22   21   22 1  
    23   22   23 1  
    24   22   31 1  
    25   23   24 2  
    26   24   25 1  
    27   25   26 ar 
    28   25   31 ar 
    29   26   27 1  
    30   26   28 ar 
    31   28   29 ar 
    32   29   30 ar 
    33   30   31 ar 
    34   14   32 1  
    35   14   33 1  
    36   15   34 1  
    37   17   35 1  
    38   18   36 1  
    39   19   37 1  
    40   20   38 1  
    41   21   39 1  
    42   23   40 1  
    43   27   41 1  
    44   27   42 1  
    45   29   43 1  
    46   10   44 1  
@<TRIPOS>SUBSTRUCTURE
     1 SUB1        1 GROUP

