### 
### Created by X-TOOL on Mon Oct 24 22:33:53 2005
### 

@<TRIPOS>MOLECULE
1h4w_ligand
   18    18     1     0     0
SMALL
GAST_HUCK


@<TRIPOS>ATOM
      1 C1         50.3420   36.7890   39.3750 C.ar      1 SUB1        0.186
      2 C2         50.3710   35.9320   40.4660 C.ar      1 SUB1       -0.007
      3 C3         49.8970   34.5860   40.2460 C.ar      1 SUB1       -0.057
      4 C4         49.3980   34.0600   38.9960 C.ar      1 SUB1       -0.062
      5 C5         49.3930   35.0100   37.8910 C.ar      1 SUB1       -0.057
      6 C6         49.8710   36.3660   38.1130 C.ar      1 SUB1       -0.007
      7 C          50.7960   38.1370   39.5110 C.cat     1 SUB1        0.316
      8 N1         50.9760   38.6780   40.7280 N.pl3     1 SUB1       -0.200
      9 N2         51.0680   38.9190   38.4750 N.pl3     1 SUB1       -0.200
     10 H21        50.7316   36.2569   41.4353 H         1 SUB1        0.066
     11 H31        49.9173   33.9103   41.0934 H         1 SUB1        0.062
     12 H41        49.0540   33.0377   38.8886 H         1 SUB1        0.062
     13 H51        49.0364   34.7091   36.9126 H         1 SUB1        0.062
     14 H61        49.8654   37.0696   37.2884 H         1 SUB1        0.066
     15 H81        51.3036   39.6506   40.8159 H         1 SUB1        0.192
     16 H82        50.7864   38.1201   41.5728 H         1 SUB1        0.192
     17 H91        50.9501   38.5627   37.5158 H         1 SUB1        0.192
     18 H92        51.3971   39.8827   38.6296 H         1 SUB1        0.192
@<TRIPOS>BOND
     1    1    7 1  
     2    1    6 ar 
     3    1    2 ar 
     4    2    3 ar 
     5    3    4 ar 
     6    4    5 ar 
     7    5    6 ar 
     8    7    9 1  
     9    7    8 1  
    10    2   10 1  
    11    3   11 1  
    12    4   12 1  
    13    5   13 1  
    14    6   14 1  
    15    8   15 1  
    16    8   16 1  
    17    9   17 1  
    18    9   18 1  
@<TRIPOS>SUBSTRUCTURE
     1 SUB1        1 GROUP

