### 
### Created by X-TOOL on Tue Oct 25 02:22:34 2005
### 

@<TRIPOS>MOLECULE
1xk5_ligand
   85    90     1     0     0
SMALL
GAST_HUCK


@<TRIPOS>ATOM
      1 OBB        13.3430   40.1650   11.7280 O.2       1 SUB1       -0.331
      2 CBF        13.1200   38.9600   11.8310 C.2       1 SUB1        0.309
      3 NBE        13.6600   38.2360   12.9030 N.am      1 SUB1       -0.140
      4 CBM        13.4020   36.8630   13.0070 C.2       1 SUB1        0.318
      5 NBV        13.9380   36.1460   13.9930 N.pl3     1 SUB1       -0.234
      6 CBZ        13.6700   34.7040   14.0940 C.3       1 SUB1        0.036
      7 CBW        14.8110   36.7870   14.9870 C.3       1 SUB1        0.036
      8 NBN        12.6360   36.2680   12.0800 N.2       1 SUB1       -0.148
      9 CBO        12.1050   36.9400   11.0450 C.2       1 SUB1        0.233
     10 CBG        12.3320   38.3060   10.8880 C.2       1 SUB1        0.191
     11 NBH        11.7960   38.7010    9.7360 N.2       1 SUB1       -0.308
     12 CBC        11.9410   40.0440    9.1310 C.3       1 SUB1       -0.004
     13 CBI        11.0180   37.6070    9.1420 C.2       1 SUB1        0.142
     14 NBP        11.4090   36.4840   10.0060 N.pl3     1 SUB1       -0.153
     15 CBQ        11.0640   35.0680    9.7380 C.3       1 SUB1        0.210
     16 OBR        12.1350   34.5230    8.9450 O.3       1 SUB1       -0.336
     17 CBX         9.7990   34.8770    8.8980 C.3       1 SUB1        0.140
     18 OCA         9.3360   33.5300    9.0290 O.3       1 SUB1       -0.384
     19 CBY        10.3630   35.1400    7.5050 C.3       1 SUB1        0.115
     20 OCB         9.4890   34.6000    6.5100 O.3       1 SUB1       -0.386
     21 CBS        11.6480   34.3210    7.6070 C.3       1 SUB1        0.117
     22 CBT        12.6650   34.7350    6.5430 C.3       1 SUB1        0.089
     23 OBU        12.0890   34.6110    5.2410 O.3       1 SUB1       -0.318
     24 PBK        12.6350   35.5190    4.0300 P.3       1 SUB1        0.295
     25 OBL        13.8730   36.3690    4.6130 O.co2     1 SUB1       -0.532
     26 OBJ        11.5770   36.4030    3.4920 O.co2     1 SUB1       -0.532
     27 OBD        13.2310   34.4950    2.9390 O.3       1 SUB1       -0.253
     28 PAZ        14.7940   34.1070    2.9330 P.3       1 SUB1        0.323
     29 OBA        15.1790   33.2050    1.6550 O.co2     1 SUB1       -0.532
     30 OAY        15.8070   34.8940    3.6710 O.co2     1 SUB1       -0.532
     31 OAX        14.6100   32.8540    3.9290 O.3       1 SUB1       -0.253
     32 PAT        15.8780   32.2120    4.6890 P.3       1 SUB1        0.295
     33 OAU        16.5000   30.9650    3.8800 O.co2     1 SUB1       -0.532
     34 OAS        16.6570   32.9620    5.6980 O.co2     1 SUB1       -0.532
     35 O5         14.9850   31.2810    5.6530 O.3       1 SUB1       -0.318
     36 C5         14.1580   31.8340    6.6820 C.3       1 SUB1        0.089
     37 C4         14.8540   31.8470    8.0450 C.3       1 SUB1        0.116
     38 O4         15.8770   32.8510    8.1530 O.3       1 SUB1       -0.336
     39 C3         13.8830   32.2430    9.1560 C.3       1 SUB1        0.115
     40 O3         13.0260   31.1370    9.4520 O.3       1 SUB1       -0.386
     41 C2         14.9080   32.4000   10.2760 C.3       1 SUB1        0.139
     42 O2         15.4030   31.1150   10.6620 O.3       1 SUB1       -0.384
     43 C1         16.0090   33.1790    9.5510 C.3       1 SUB1        0.199
     44 N9         15.8230   34.6400    9.7180 N.pl3     1 SUB1       -0.210
     45 C8         15.2740   35.4680    8.8320 C.2       1 SUB1        0.096
     46 N7         15.3520   36.7180    9.2830 N.2       1 SUB1       -0.324
     47 C5         15.9500   36.6890   10.4700 C.2       1 SUB1        0.093
     48 C4         16.2440   35.3600   10.7550 C.2       1 SUB1        0.116
     49 N3         16.8470   35.0200   11.9050 N.2       1 SUB1       -0.276
     50 C2         17.1930   35.9380   12.8200 C.2       1 SUB1        0.234
     51 N2         17.7780   35.5630   13.9540 N.pl3     1 SUB1       -0.281
     52 N1         16.9270   37.2930   12.5830 N.am      1 SUB1       -0.184
     53 C6         16.2980   37.6710   11.3900 C.2       1 SUB1        0.213
     54 O6         16.0790   38.8580   11.1530 O.2       1 SUB1       -0.409
     55 H31        14.2249   38.6959   13.5881 H         1 SUB1        0.276
     56 H61        14.1977   34.2933   14.9674 H         1 SUB1        0.052
     57 H62        14.0234   34.2006   13.1820 H         1 SUB1        0.052
     58 H63        12.5885   34.5392   14.2082 H         1 SUB1        0.052
     59 H71        14.8998   37.8596   14.7596 H         1 SUB1        0.052
     60 H72        15.8072   36.3216   14.9545 H         1 SUB1        0.052
     61 H73        14.3793   36.6596   15.9907 H         1 SUB1        0.052
     62 H121       11.3893   40.0792    8.1800 H         1 SUB1        0.036
     63 H122       13.0055   40.2495    8.9451 H         1 SUB1        0.036
     64 H123       11.5359   40.8014    9.8181 H         1 SUB1        0.036
     65 H131       10.3367   37.6231    8.2926 H         1 SUB1        0.161
     66 H151       10.9604   34.5297   10.6917 H         1 SUB1        0.101
     67 H171        9.0008   35.5850    9.1655 H         1 SUB1        0.068
     68 H181        8.5509   33.4140    8.5068 H         1 SUB1        0.210
     69 H191       10.5529   36.2065    7.3142 H         1 SUB1        0.065
     70 H201        9.8497   34.7694    5.6477 H         1 SUB1        0.210
     71 H211       11.4161   33.2555    7.4623 H         1 SUB1        0.065
     72 H221       13.5501   34.0856    6.6130 H         1 SUB1        0.062
     73 H222       12.9630   35.7804    6.7113 H         1 SUB1        0.062
     74 H361       13.2405   31.2323    6.7595 H         1 SUB1        0.062
     75 H362       13.8970   32.8670    6.4087 H         1 SUB1        0.062
     76 H371       15.2767   30.8491    8.2335 H         1 SUB1        0.065
     77 H391       13.3086   33.1568    8.9436 H         1 SUB1        0.065
     78 H401       13.5511   30.3982    9.7365 H         1 SUB1        0.210
     79 H411       14.5065   32.9426   11.1445 H         1 SUB1        0.068
     80 H421       14.6816   30.5779   10.9682 H         1 SUB1        0.210
     81 H431       16.9987   32.8837    9.9294 H         1 SUB1        0.100
     82 H451       14.8294   35.1688    7.8840 H         1 SUB1        0.118
     83 H511       17.9733   34.5667   14.1278 H         1 SUB1        0.190
     84 H512       18.0357   36.2688   14.6585 H         1 SUB1        0.190
     85 H521       17.1838   37.9836   13.2591 H         1 SUB1        0.252
@<TRIPOS>BOND
     1    1    2 2  
     2    2    3 am 
     3    2   10 1  
     4    3    4 am 
     5    4    5 1  
     6    4    8 2  
     7    5    6 1  
     8    5    7 1  
     9    8    9 1  
    10    9   10 2  
    11    9   14 1  
    12   10   11 1  
    13   11   12 1  
    14   11   13 2  
    15   13   14 1  
    16   14   15 1  
    17   15   16 1  
    18   15   17 1  
    19   16   21 1  
    20   17   18 1  
    21   17   19 1  
    22   19   20 1  
    23   19   21 1  
    24   21   22 1  
    25   22   23 1  
    26   23   24 1  
    27   24   25 2  
    28   24   26 2  
    29   24   27 1  
    30   27   28 1  
    31   28   29 2  
    32   28   30 2  
    33   28   31 1  
    34   31   32 1  
    35   32   33 2  
    36   32   34 2  
    37   32   35 1  
    38   35   36 1  
    39   36   37 1  
    40   37   38 1  
    41   37   39 1  
    42   38   43 1  
    43   39   40 1  
    44   39   41 1  
    45   41   42 1  
    46   41   43 1  
    47   43   44 1  
    48   44   45 1  
    49   44   48 1  
    50   45   46 2  
    51   46   47 1  
    52   47   48 2  
    53   47   53 1  
    54   48   49 1  
    55   49   50 2  
    56   50   51 1  
    57   50   52 am 
    58   52   53 am 
    59   53   54 2  
    60    3   55 1  
    61    6   56 1  
    62    6   57 1  
    63    6   58 1  
    64    7   59 1  
    65    7   60 1  
    66    7   61 1  
    67   12   62 1  
    68   12   63 1  
    69   12   64 1  
    70   13   65 1  
    71   15   66 1  
    72   17   67 1  
    73   18   68 1  
    74   19   69 1  
    75   20   70 1  
    76   21   71 1  
    77   22   72 1  
    78   22   73 1  
    79   36   74 1  
    80   36   75 1  
    81   37   76 1  
    82   39   77 1  
    83   40   78 1  
    84   41   79 1  
    85   42   80 1  
    86   43   81 1  
    87   45   82 1  
    88   51   83 1  
    89   51   84 1  
    90   52   85 1  
@<TRIPOS>SUBSTRUCTURE
     1 SUB1        1 GROUP

