2olb_ligand
  -I-interpret- 

 69 68  0  0  0  0  0  0  0  0999 V2000
    6.9400   16.7800   15.2420 N   0  3  0  0  0
    6.5110   18.1000   14.6390 C   0  0  0  0  0
    5.3150   18.6000   15.4640 C   0  0  0  0  0
    4.5190   17.8340   16.0260 O   0  0  0  0  0
    6.1690   18.0650   13.1680 C   0  0  0  0  0
    5.2840   16.9110   12.7450 C   0  0  0  0  0
    5.2350   16.7790   11.2090 C   0  0  0  0  0
    6.4850   16.0800   10.6940 C   0  0  0  0  0
    6.4490   14.6190   11.0410 N   0  3  0  0  0
    5.2380   19.9040   15.5650 N   0  0  0  0  0
    4.1810   20.5480   16.3260 C   0  0  0  0  0
    2.8690   20.5120   15.5430 C   0  0  0  0  0
    2.8130   20.7590   14.3570 O   0  0  0  0  0
    4.5720   22.0490   16.5940 C   0  0  0  0  0
    5.5030   22.0830   17.8720 C   0  0  0  0  0
    5.7550   23.4500   18.3690 C   0  0  0  0  0
    6.4210   23.5250   19.7390 C   0  0  0  0  0
    7.2180   22.3310   20.1020 N   0  3  0  0  0
    1.8010   20.2070   16.3100 N   0  0  0  0  0
    0.4570   20.1860   15.7510 C   0  0  0  0  0
   -0.5260   20.7670   16.8180 C   0  0  0  0  0
   -1.7000   20.3460   16.8040 O   0  5  0  0  0
    0.0050   18.8020   15.3110 C   0  0  0  0  0
   -1.0890   18.9880   14.2210 C   0  0  0  0  0
   -1.6830   17.6400   13.8820 C   0  0  0  0  0
   -2.6230   17.6560   12.6830 C   0  0  0  0  0
   -3.7330   18.6580   12.8350 N   0  3  0  0  0
   -0.1580   21.6290   17.6390 O   0  0  0  0  0
    6.3660   16.5750   16.0448 H   0  0  0  0  0
    7.3433   18.8091   14.7587 H   0  0  0  0  0
    7.1090   18.0003   12.6003 H   0  0  0  0  0
    5.6519   19.0024   12.9153 H   0  0  0  0  0
    4.2654   17.0828   13.1229 H   0  0  0  0  0
    5.6813   15.9787   13.1727 H   0  0  0  0  0
    5.1706   17.7817   10.7613 H   0  0  0  0  0
    4.3490   16.1927   10.9241 H   0  0  0  0  0
    7.3725   16.5397   11.1533 H   0  0  0  0  0
    6.5384   16.1917    9.6010 H   0  0  0  0  0
    6.4121   14.5124   12.0427 H   0  0  0  0  0
    7.2778   14.1687   10.6855 H   0  0  0  0  0
    5.6330   14.1955   10.6277 H   0  0  0  0  0
    5.9236   20.4700   15.1071 H   0  0  0  0  0
    4.0502   20.0235   17.2840 H   0  0  0  0  0
    3.6657   22.6456   16.7749 H   0  0  0  0  0
    5.1118   22.4561   15.7264 H   0  0  0  0  0
    6.4675   21.6207   17.6149 H   0  0  0  0  0
    5.0202   21.5030   18.6723 H   0  0  0  0  0
    4.7900   23.9744   18.4296 H   0  0  0  0  0
    6.4056   23.9619   17.6447 H   0  0  0  0  0
    5.6342   23.6558   20.4965 H   0  0  0  0  0
    7.0884   24.3993   19.7489 H   0  0  0  0  0
    6.6193   21.5203   20.1202 H   0  0  0  0  0
    7.6292   22.4655   21.0124 H   0  0  0  0  0
    7.9480   22.1944   19.4205 H   0  0  0  0  0
    1.9351   19.9921   17.2774 H   0  0  0  0  0
    0.4442   20.8391   14.8660 H   0  0  0  0  0
   -0.4101   18.2528   16.1689 H   0  0  0  0  0
    0.8570   18.2437   14.8957 H   0  0  0  0  0
   -0.6395   19.4297   13.3194 H   0  0  0  0  0
   -1.8782   19.6534   14.6009 H   0  0  0  0  0
   -2.2454   17.2809   14.7565 H   0  0  0  0  0
   -0.8589   16.9444   13.6652 H   0  0  0  0  0
   -3.0647   16.6552   12.5676 H   0  0  0  0  0
   -2.0424   17.9065   11.7829 H   0  0  0  0  0
   -4.2834   18.4290   13.6478 H   0  0  0  0  0
   -4.3194   18.6368   12.0154 H   0  0  0  0  0
   -3.3407   19.5801   12.9437 H   0  0  0  0  0
    7.9056   16.8381   15.5254 H   0  0  0  0  0
    6.8342   16.0477   14.5575 H   0  0  0  0  0
  2  1  1  0  0  0
  2  5  1  0  0  0
  3  2  1  0  0  0
  3  4  2  0  0  0
  5  6  1  0  0  0
  6  7  1  0  0  0
  7  8  1  0  0  0
  8  9  1  0  0  0
 11 10  1  0  0  0
 11 14  1  0  0  0
 12 11  1  0  0  0
 12 13  2  0  0  0
 14 15  1  0  0  0
 15 16  1  0  0  0
 16 17  1  0  0  0
 17 18  1  0  0  0
 10  3  1  0  0  0
 19 20  1  0  0  0
 20 23  1  0  0  0
 20 21  1  0  0  0
 21 22  1  0  0  0
 21 28  2  0  0  0
 23 24  1  0  0  0
 24 25  1  0  0  0
 25 26  1  0  0  0
 26 27  1  0  0  0
 12 19  1  0  0  0
  1 29  1  0  0  0
  2 30  1  0  0  0
  5 31  1  0  0  0
  5 32  1  0  0  0
  6 33  1  0  0  0
  6 34  1  0  0  0
  7 35  1  0  0  0
  7 36  1  0  0  0
  8 37  1  0  0  0
  8 38  1  0  0  0
  9 39  1  0  0  0
  9 40  1  0  0  0
  9 41  1  0  0  0
 10 42  1  0  0  0
 11 43  1  0  0  0
 14 44  1  0  0  0
 14 45  1  0  0  0
 15 46  1  0  0  0
 15 47  1  0  0  0
 16 48  1  0  0  0
 16 49  1  0  0  0
 17 50  1  0  0  0
 17 51  1  0  0  0
 18 52  1  0  0  0
 18 53  1  0  0  0
 18 54  1  0  0  0
 19 55  1  0  0  0
 20 56  1  0  0  0
 23 57  1  0  0  0
 23 58  1  0  0  0
 24 59  1  0  0  0
 24 60  1  0  0  0
 25 61  1  0  0  0
 25 62  1  0  0  0
 26 63  1  0  0  0
 26 64  1  0  0  0
 27 65  1  0  0  0
 27 66  1  0  0  0
 27 67  1  0  0  0
  1 68  1  0  0  0
  1 69  1  0  0  0
M  END
$$$$
