### 
### Created by X-TOOL on Mon Oct 24 21:55:32 2005
### 

@<TRIPOS>MOLECULE
2olb_ligand
   69    68     1     0     0
SMALL
GAST_HUCK


@<TRIPOS>ATOM
      1 N           6.9400   16.7800   15.2420 N.4       1 SUB1        0.238
      2 CA          6.5110   18.1000   14.6390 C.3       1 SUB1        0.065
      3 C           5.3150   18.6000   15.4640 C.2       1 SUB1        0.227
      4 O           4.5190   17.8340   16.0260 O.2       1 SUB1       -0.391
      5 CB          6.1690   18.0650   13.1680 C.3       1 SUB1        0.008
      6 CG          5.2840   16.9110   12.7450 C.3       1 SUB1       -0.041
      7 CD          5.2350   16.7790   11.2090 C.3       1 SUB1       -0.012
      8 CE          6.4850   16.0800   10.6940 C.3       1 SUB1       -0.035
      9 NZ          6.4490   14.6190   11.0410 N.4       1 SUB1        0.219
     10 N           5.2380   19.9040   15.5650 N.am      1 SUB1       -0.261
     11 CA          4.1810   20.5480   16.3260 C.3       1 SUB1        0.131
     12 C           2.8690   20.5120   15.5430 C.2       1 SUB1        0.205
     13 O           2.8130   20.7590   14.3570 O.2       1 SUB1       -0.394
     14 CB          4.5720   22.0490   16.5940 C.3       1 SUB1       -0.012
     15 CG          5.5030   22.0830   17.8720 C.3       1 SUB1       -0.044
     16 CD          5.7550   23.4500   18.3690 C.3       1 SUB1       -0.012
     17 CE          6.4210   23.5250   19.7390 C.3       1 SUB1       -0.035
     18 NZ          7.2180   22.3310   20.1020 N.4       1 SUB1        0.219
     19 N           1.8010   20.2070   16.3100 N.am      1 SUB1       -0.268
     20 CA          0.4570   20.1860   15.7510 C.3       1 SUB1        0.081
     21 C          -0.5260   20.7670   16.8180 C.2       1 SUB1        0.053
     22 O          -1.7000   20.3460   16.8040 O.co2     1 SUB1       -0.564
     23 CB          0.0050   18.8020   15.3110 C.3       1 SUB1       -0.018
     24 CG         -1.0890   18.9880   14.2210 C.3       1 SUB1       -0.043
     25 CD         -1.6830   17.6400   13.8820 C.3       1 SUB1       -0.012
     26 CE         -2.6230   17.6560   12.6830 C.3       1 SUB1       -0.035
     27 NZ         -3.7330   18.6580   12.8350 N.4       1 SUB1        0.219
     28 OXT        -0.1580   21.6290   17.6390 O.co2     1 SUB1       -0.564
     29 H11         6.3660   16.5750   16.0448 H         1 SUB1        0.201
     30 H21         7.3433   18.8091   14.7587 H         1 SUB1        0.110
     31 H51         7.1090   18.0003   12.6003 H         1 SUB1        0.035
     32 H52         5.6519   19.0024   12.9153 H         1 SUB1        0.035
     33 H61         4.2654   17.0828   13.1229 H         1 SUB1        0.027
     34 H62         5.6813   15.9787   13.1727 H         1 SUB1        0.027
     35 H71         5.1706   17.7817   10.7613 H         1 SUB1        0.032
     36 H72         4.3490   16.1927   10.9241 H         1 SUB1        0.032
     37 H81         7.3725   16.5397   11.1533 H         1 SUB1        0.081
     38 H82         6.5384   16.1917    9.6010 H         1 SUB1        0.081
     39 H91         6.4121   14.5124   12.0427 H         1 SUB1        0.199
     40 H92         7.2778   14.1687   10.6855 H         1 SUB1        0.199
     41 H93         5.6330   14.1955   10.6277 H         1 SUB1        0.199
     42 H101        5.9236   20.4700   15.1071 H         1 SUB1        0.188
     43 H111        4.0502   20.0235   17.2840 H         1 SUB1        0.080
     44 H141        3.6657   22.6456   16.7749 H         1 SUB1        0.031
     45 H142        5.1118   22.4561   15.7264 H         1 SUB1        0.031
     46 H151        6.4675   21.6207   17.6149 H         1 SUB1        0.027
     47 H152        5.0202   21.5030   18.6723 H         1 SUB1        0.027
     48 H161        4.7900   23.9744   18.4296 H         1 SUB1        0.032
     49 H162        6.4056   23.9619   17.6447 H         1 SUB1        0.032
     50 H171        5.6342   23.6558   20.4965 H         1 SUB1        0.081
     51 H172        7.0884   24.3993   19.7489 H         1 SUB1        0.081
     52 H181        6.6193   21.5203   20.1202 H         1 SUB1        0.199
     53 H182        7.6292   22.4655   21.0124 H         1 SUB1        0.199
     54 H183        7.9480   22.1944   19.4205 H         1 SUB1        0.199
     55 H191        1.9351   19.9921   17.2774 H         1 SUB1        0.190
     56 H201        0.4442   20.8391   14.8660 H         1 SUB1        0.078
     57 H231       -0.4101   18.2528   16.1689 H         1 SUB1        0.032
     58 H232        0.8570   18.2437   14.8957 H         1 SUB1        0.032
     59 H241       -0.6395   19.4297   13.3194 H         1 SUB1        0.027
     60 H242       -1.8782   19.6534   14.6009 H         1 SUB1        0.027
     61 H251       -2.2454   17.2809   14.7565 H         1 SUB1        0.032
     62 H252       -0.8589   16.9444   13.6652 H         1 SUB1        0.032
     63 H261       -3.0647   16.6552   12.5676 H         1 SUB1        0.081
     64 H262       -2.0424   17.9065   11.7829 H         1 SUB1        0.081
     65 H271       -4.2834   18.4290   13.6478 H         1 SUB1        0.199
     66 H272       -4.3194   18.6368   12.0154 H         1 SUB1        0.199
     67 H273       -3.3407   19.5801   12.9437 H         1 SUB1        0.199
     68 H12         7.9056   16.8381   15.5254 H         1 SUB1        0.201
     69 H13         6.8342   16.0477   14.5575 H         1 SUB1        0.201
@<TRIPOS>BOND
     1    2    1 1  
     2    2    5 1  
     3    3    2 1  
     4    3    4 2  
     5    5    6 1  
     6    6    7 1  
     7    7    8 1  
     8    8    9 1  
     9   11   10 1  
    10   11   14 1  
    11   12   11 1  
    12   12   13 2  
    13   14   15 1  
    14   15   16 1  
    15   16   17 1  
    16   17   18 1  
    17   10    3 am 
    18   19   20 1  
    19   20   23 1  
    20   20   21 1  
    21   21   22 2  
    22   21   28 2  
    23   23   24 1  
    24   24   25 1  
    25   25   26 1  
    26   26   27 1  
    27   12   19 am 
    28    1   29 1  
    29    2   30 1  
    30    5   31 1  
    31    5   32 1  
    32    6   33 1  
    33    6   34 1  
    34    7   35 1  
    35    7   36 1  
    36    8   37 1  
    37    8   38 1  
    38    9   39 1  
    39    9   40 1  
    40    9   41 1  
    41   10   42 1  
    42   11   43 1  
    43   14   44 1  
    44   14   45 1  
    45   15   46 1  
    46   15   47 1  
    47   16   48 1  
    48   16   49 1  
    49   17   50 1  
    50   17   51 1  
    51   18   52 1  
    52   18   53 1  
    53   18   54 1  
    54   19   55 1  
    55   20   56 1  
    56   23   57 1  
    57   23   58 1  
    58   24   59 1  
    59   24   60 1  
    60   25   61 1  
    61   25   62 1  
    62   26   63 1  
    63   26   64 1  
    64   27   65 1  
    65   27   66 1  
    66   27   67 1  
    67    1   68 1  
    68    1   69 1  
@<TRIPOS>SUBSTRUCTURE
     1 SUB1        1 GROUP

