1laf_ligand
  -I-interpret- 

 27 26  0  0  0  0  0  0  0  0999 V2000
   18.7560   58.1550   45.9180 N   0  3  0  0  0
   18.9000   57.4290   47.1380 C   0  0  0  0  0
   18.2750   58.3260   48.2220 C   0  0  0  0  0
   18.1210   57.8770   49.3480 O   0  0  0  0  0
   20.3840   57.1610   47.3900 C   0  0  0  0  0
   21.2940   58.3560   47.1410 C   0  0  0  0  0
   22.6150   58.0920   47.7820 C   0  0  0  0  0
   23.5380   59.1580   47.4680 N   0  0  0  0  0
   24.7770   59.1570   47.9720 C   0  3  0  0  0
   25.1580   58.2250   48.8030 N   0  0  0  0  0
   25.6620   60.1130   47.6930 N   0  0  0  0  0
   17.9170   59.4770   47.9200 O   0  5  0  0  0
   18.2947   59.0323   46.1015 H   0  0  0  0  0
   18.3619   56.4711   47.0856 H   0  0  0  0  0
   20.7025   56.3430   46.7272 H   0  0  0  0  0
   20.5037   56.8509   48.4386 H   0  0  0  0  0
   20.8450   59.2606   47.5771 H   0  0  0  0  0
   21.4295   58.4991   46.0588 H   0  0  0  0  0
   23.0178   57.1393   47.4076 H   0  0  0  0  0
   22.4852   58.0318   48.8727 H   0  0  0  0  0
   23.2392   59.9261   46.8502 H   0  0  0  0  0
   24.5019   57.4798   49.0772 H   0  0  0  0  0
   26.1147   58.2348   49.1845 H   0  0  0  0  0
   25.4015   60.8896   47.0685 H   0  0  0  0  0
   26.6067   60.0755   48.1018 H   0  0  0  0  0
   18.2054   57.6153   45.2688 H   0  0  0  0  0
   19.6662   58.3304   45.5219 H   0  0  0  0  0
  2  3  1  0  0  0
  2  5  1  0  0  0
  2  1  1  0  0  0
  5  6  1  0  0  0
  6  7  1  0  0  0
  7  8  1  0  0  0
  8  9  1  0  0  0
  9 10  1  0  0  0
  9 11  1  0  0  0
  3 12  1  0  0  0
  3  4  2  0  0  0
  1 13  1  0  0  0
  2 14  1  0  0  0
  5 15  1  0  0  0
  5 16  1  0  0  0
  6 17  1  0  0  0
  6 18  1  0  0  0
  7 19  1  0  0  0
  7 20  1  0  0  0
  8 21  1  0  0  0
 10 22  1  0  0  0
 10 23  1  0  0  0
 11 24  1  0  0  0
 11 25  1  0  0  0
  1 26  1  0  0  0
  1 27  1  0  0  0
M  END
$$$$
