### 
### Created by X-TOOL on Tue Oct 25 00:19:40 2005
### 

@<TRIPOS>MOLECULE
1laf_ligand
   27    26     1     0     0
SMALL
GAST_HUCK


@<TRIPOS>ATOM
      1 N          18.7560   58.1550   45.9180 N.4       1 SUB1        0.238
      2 CA         18.9000   57.4290   47.1380 C.3       1 SUB1        0.015
      3 C          18.2750   58.3260   48.2220 C.2       1 SUB1        0.076
      4 O          18.1210   57.8770   49.3480 O.co2     1 SUB1       -0.561
      5 CB         20.3840   57.1610   47.3900 C.3       1 SUB1        0.003
      6 CG         21.2940   58.3560   47.1410 C.3       1 SUB1       -0.026
      7 CD         22.6150   58.0920   47.7820 C.3       1 SUB1        0.051
      8 NE         23.5380   59.1580   47.4680 N.pl3     1 SUB1       -0.170
      9 CZ         24.7770   59.1570   47.9720 C.cat     1 SUB1        0.387
     10 NH1        25.1580   58.2250   48.8030 N.pl3     1 SUB1       -0.183
     11 NH2        25.6620   60.1130   47.6930 N.pl3     1 SUB1       -0.183
     12 OXT        17.9170   59.4770   47.9200 O.co2     1 SUB1       -0.561
     13 H11        18.2947   59.0323   46.1015 H         1 SUB1        0.202
     14 H21        18.3619   56.4711   47.0856 H         1 SUB1        0.107
     15 H51        20.7025   56.3430   46.7272 H         1 SUB1        0.036
     16 H52        20.5037   56.8509   48.4386 H         1 SUB1        0.036
     17 H61        20.8450   59.2606   47.5771 H         1 SUB1        0.029
     18 H62        21.4295   58.4991   46.0588 H         1 SUB1        0.029
     19 H71        23.0178   57.1393   47.4076 H         1 SUB1        0.050
     20 H72        22.4852   58.0318   48.8727 H         1 SUB1        0.050
     21 H81        23.2392   59.9261   46.8502 H         1 SUB1        0.198
     22 H101       24.5019   57.4798   49.0772 H         1 SUB1        0.194
     23 H102       26.1147   58.2348   49.1845 H         1 SUB1        0.194
     24 H111       25.4015   60.8896   47.0685 H         1 SUB1        0.194
     25 H112       26.6067   60.0755   48.1018 H         1 SUB1        0.194
     26 H12        18.2054   57.6153   45.2688 H         1 SUB1        0.202
     27 H13        19.6662   58.3304   45.5219 H         1 SUB1        0.202
@<TRIPOS>BOND
     1    2    3 1  
     2    2    5 1  
     3    2    1 1  
     4    5    6 1  
     5    6    7 1  
     6    7    8 1  
     7    8    9 1  
     8    9   10 1  
     9    9   11 1  
    10    3   12 2  
    11    3    4 2  
    12    1   13 1  
    13    2   14 1  
    14    5   15 1  
    15    5   16 1  
    16    6   17 1  
    17    6   18 1  
    18    7   19 1  
    19    7   20 1  
    20    8   21 1  
    21   10   22 1  
    22   10   23 1  
    23   11   24 1  
    24   11   25 1  
    25    1   26 1  
    26    1   27 1  
@<TRIPOS>SUBSTRUCTURE
     1 SUB1        1 GROUP

