### 
### Created by X-TOOL on Mon Oct 24 22:50:56 2005
### 

@<TRIPOS>MOLECULE
1flr_ligand
   36    39     1     0     0
SMALL
GAST_HUCK


@<TRIPOS>ATOM
      1 C1         28.8520   22.3110   42.3360 C.2       1 SUB1        0.091
      2 O1         29.9320   21.9760   42.8260 O.3       1 SUB1       -0.329
      3 C2         28.1010   21.2550   41.7650 C.2       1 SUB1        0.012
      4 C3         26.8930   21.6920   41.2150 C.2       1 SUB1        0.139
      5 O2         26.1410   20.5740   40.5740 O.3       1 SUB1       -0.244
      6 C4         25.1010   21.0270   40.1180 C.2       1 SUB1        0.124
      7 C5         24.4280   19.9240   39.5570 C.2       1 SUB1       -0.018
      8 C6         23.2250   20.2720   38.9490 C.2       1 SUB1        0.069
      9 O3         22.5710   19.3660   38.4320 O.2       1 SUB1       -0.441
     10 C7         22.7230   21.5430   38.9370 C.2       1 SUB1       -0.038
     11 C8         23.4320   22.6160   39.5330 C.2       1 SUB1       -0.053
     12 C9         24.6420   22.2740   40.1320 C.2       1 SUB1        0.031
     13 C10        25.2870   23.4290   40.7560 C.2       1 SUB1        0.013
     14 C11        26.4210   22.9380   41.2590 C.2       1 SUB1        0.033
     15 C12        27.1540   23.9820   41.9020 C.2       1 SUB1       -0.055
     16 C13        28.4020   23.5650   42.4050 C.2       1 SUB1       -0.032
     17 C14        24.7860   24.6530   40.7450 C.ar      1 SUB1        0.009
     18 C15        24.6170   25.4250   39.6050 C.ar      1 SUB1       -0.043
     19 C16        24.0090   26.6640   39.5340 C.ar      1 SUB1       -0.052
     20 C17        23.5240   27.2540   40.7490 C.ar      1 SUB1       -0.052
     21 C18        23.7450   26.4400   41.8670 C.ar      1 SUB1       -0.042
     22 C19        24.3020   25.1910   41.9690 C.ar      1 SUB1        0.024
     23 C20        24.3340   24.6720   43.2830 C.2       1 SUB1        0.091
     24 O4         23.7640   23.4100   43.2770 O.co2     1 SUB1       -0.531
     25 O5         24.8540   25.1510   44.4230 O.co2     1 SUB1       -0.531
     26 H21        30.3669   22.7410   43.1841 H         1 SUB1        0.252
     27 H31        28.4288   20.2165   41.7555 H         1 SUB1        0.050
     28 H71        24.8093   18.9046   39.5950 H         1 SUB1        0.023
     29 H101       21.7622   21.7347   38.4616 H         1 SUB1        0.051
     30 H111       23.0562   23.6381   39.5232 H         1 SUB1        0.064
     31 H151       26.7837   25.0019   41.9944 H         1 SUB1        0.062
     32 H161       29.0379   24.3114   42.8788 H         1 SUB1        0.051
     33 H181       25.0001   25.0156   38.6773 H         1 SUB1        0.068
     34 H191       23.9012   27.1769   38.5851 H         1 SUB1        0.067
     35 H201       23.0400   28.2228   40.7962 H         1 SUB1        0.066
     36 H211       23.4219   26.8687   42.8087 H         1 SUB1        0.069
@<TRIPOS>BOND
     1    1   16 1  
     2    1    3 2  
     3    1    2 1  
     4    3    4 1  
     5    4   14 2  
     6    4    5 1  
     7    5    6 1  
     8    6   12 1  
     9    6    7 2  
    10    7    8 1  
    11    8   10 1  
    12    8    9 2  
    13   10   11 2  
    14   11   12 1  
    15   12   13 2  
    16   13   17 1  
    17   13   14 1  
    18   14   15 1  
    19   15   16 2  
    20   17   22 ar 
    21   17   18 ar 
    22   18   19 ar 
    23   19   20 ar 
    24   20   21 ar 
    25   21   22 ar 
    26   22   23 1  
    27   23   25 2  
    28   23   24 2  
    29    2   26 1  
    30    3   27 1  
    31    7   28 1  
    32   10   29 1  
    33   11   30 1  
    34   15   31 1  
    35   16   32 1  
    36   18   33 1  
    37   19   34 1  
    38   20   35 1  
    39   21   36 1  
@<TRIPOS>SUBSTRUCTURE
     1 SUB1        1 GROUP

