1flr_ligand
  -I-interpret- 

 36 39  0  0  0  0  0  0  0  0999 V2000
   28.8520   22.3110   42.3360 C   0  0  0  0  0
   29.9320   21.9760   42.8260 O   0  0  0  0  0
   28.1010   21.2550   41.7650 C   0  0  0  0  0
   26.8930   21.6920   41.2150 C   0  0  0  0  0
   26.1410   20.5740   40.5740 O   0  0  0  0  0
   25.1010   21.0270   40.1180 C   0  0  0  0  0
   24.4280   19.9240   39.5570 C   0  0  0  0  0
   23.2250   20.2720   38.9490 C   0  0  0  0  0
   22.5710   19.3660   38.4320 O   0  0  0  0  0
   22.7230   21.5430   38.9370 C   0  0  0  0  0
   23.4320   22.6160   39.5330 C   0  0  0  0  0
   24.6420   22.2740   40.1320 C   0  0  0  0  0
   25.2870   23.4290   40.7560 C   0  0  0  0  0
   26.4210   22.9380   41.2590 C   0  0  0  0  0
   27.1540   23.9820   41.9020 C   0  0  0  0  0
   28.4020   23.5650   42.4050 C   0  0  0  0  0
   24.7860   24.6530   40.7450 C   0  0  0  0  0
   24.6170   25.4250   39.6050 C   0  0  0  0  0
   24.0090   26.6640   39.5340 C   0  0  0  0  0
   23.5240   27.2540   40.7490 C   0  0  0  0  0
   23.7450   26.4400   41.8670 C   0  0  0  0  0
   24.3020   25.1910   41.9690 C   0  0  0  0  0
   24.3340   24.6720   43.2830 C   0  0  0  0  0
   23.7640   23.4100   43.2770 O   0  5  0  0  0
   24.8540   25.1510   44.4230 O   0  0  0  0  0
   30.3669   22.7410   43.1841 H   0  0  0  0  0
   28.4288   20.2165   41.7555 H   0  0  0  0  0
   24.8093   18.9046   39.5950 H   0  0  0  0  0
   21.7622   21.7347   38.4616 H   0  0  0  0  0
   23.0562   23.6381   39.5232 H   0  0  0  0  0
   26.7837   25.0019   41.9944 H   0  0  0  0  0
   29.0379   24.3114   42.8788 H   0  0  0  0  0
   25.0001   25.0156   38.6773 H   0  0  0  0  0
   23.9012   27.1769   38.5851 H   0  0  0  0  0
   23.0400   28.2228   40.7962 H   0  0  0  0  0
   23.4219   26.8687   42.8087 H   0  0  0  0  0
  1 16  1  0  0  0
  1  3  2  0  0  0
  1  2  1  0  0  0
  3  4  1  0  0  0
  4 14  2  0  0  0
  4  5  1  0  0  0
  5  6  1  0  0  0
  6 12  1  0  0  0
  6  7  2  0  0  0
  7  8  1  0  0  0
  8 10  1  0  0  0
  8  9  2  0  0  0
 10 11  2  0  0  0
 11 12  1  0  0  0
 12 13  2  0  0  0
 13 17  1  0  0  0
 13 14  1  0  0  0
 14 15  1  0  0  0
 15 16  2  0  0  0
 17 22  4  0  0  0
 17 18  4  0  0  0
 18 19  4  0  0  0
 19 20  4  0  0  0
 20 21  4  0  0  0
 21 22  4  0  0  0
 22 23  1  0  0  0
 23 25  2  0  0  0
 23 24  1  0  0  0
  2 26  1  0  0  0
  3 27  1  0  0  0
  7 28  1  0  0  0
 10 29  1  0  0  0
 11 30  1  0  0  0
 15 31  1  0  0  0
 16 32  1  0  0  0
 18 33  1  0  0  0
 19 34  1  0  0  0
 20 35  1  0  0  0
 21 36  1  0  0  0
M  END
$$$$
