### 
### Created by X-TOOL on Sun Jun  3 11:19:31 2007
### 

@<TRIPOS>MOLECULE
2cer_ligand
   42    44     1     0     0
SMALL
GAST_HUCK


@<TRIPOS>ATOM
      1 O6         61.9980  -69.5540    8.8200 O.3       1 SUB1       -0.392
      2 C6         62.3810  -70.9020    9.0160 C.3       1 SUB1        0.077
      3 C5         63.6920  -71.1720    8.3120 C.3       1 SUB1        0.117
      4 C4         64.9100  -70.6240    9.0650 C.3       1 SUB1        0.118
      5 O4         64.9150  -71.0990   10.4180 O.3       1 SUB1       -0.386
      6 C3         66.2050  -71.0060    8.2880 C.3       1 SUB1        0.125
      7 O3         67.4380  -70.6500    8.9610 O.3       1 SUB1       -0.384
      8 C2         66.2060  -70.3660    6.9050 C.3       1 SUB1        0.158
      9 O2         67.0040  -71.1800    6.0520 O.3       1 SUB1       -0.370
     10 N1         63.6890  -70.5460    6.9690 N.pl3     1 SUB1       -0.250
     11 C8         62.6400  -70.2110    6.2020 C.2       1 SUB1        0.024
     12 C7         63.1330  -69.6510    5.0360 C.2       1 SUB1       -0.018
     13 N2         64.4810  -69.6560    5.1740 N.2       1 SUB1       -0.331
     14 C1         64.8200  -70.1970    6.3540 C.2       1 SUB1        0.143
     15 C9         62.3150  -69.0980    3.8420 C.3       1 SUB1       -0.019
     16 C10        62.5130  -67.5770    3.7060 C.3       1 SUB1       -0.013
     17 C14        62.0240  -66.9120    2.4140 C.ar      1 SUB1       -0.042
     18 C13        62.0150  -65.5100    2.3620 C.ar      1 SUB1       -0.060
     19 C12        61.5800  -64.8320    1.2190 C.ar      1 SUB1       -0.069
     20 C15        61.5910  -67.6450    1.2920 C.ar      1 SUB1       -0.060
     21 C16        61.1580  -66.9780    0.1470 C.ar      1 SUB1       -0.069
     22 C11        61.1520  -65.5770    0.1120 C.ar      1 SUB1       -0.069
     23 H          61.8943  -69.3853    7.8806 H         1 SUB1        0.209
     24 H          61.6118  -71.5574    8.6074 H         1 SUB1        0.059
     25 H          62.5003  -71.0904   10.0829 H         1 SUB1        0.059
     26 H          63.7763  -72.2572    8.2551 H         1 SUB1        0.070
     27 H          64.8629  -69.5364    9.1190 H         1 SUB1        0.065
     28 H          65.6821  -70.7482   10.8763 H         1 SUB1        0.210
     29 H          66.1809  -72.0937    8.2215 H         1 SUB1        0.068
     30 H          68.1850  -70.9174    8.4205 H         1 SUB1        0.210
     31 H          66.6217  -69.3606    6.9721 H         1 SUB1        0.086
     32 H          67.0214  -70.7979    5.1714 H         1 SUB1        0.214
     33 H          61.5888  -70.3541    6.4522 H         1 SUB1        0.066
     34 H          61.2582  -69.3022    4.0137 H         1 SUB1        0.039
     35 H          62.6562  -69.5814    2.9266 H         1 SUB1        0.039
     36 H          63.5912  -67.4185    3.7275 H         1 SUB1        0.044
     37 H          61.9226  -67.1316    4.5067 H         1 SUB1        0.044
     38 H          62.3528  -64.9396    3.2272 H         1 SUB1        0.056
     39 H          61.5739  -63.7424    1.1896 H         1 SUB1        0.060
     40 H          61.5945  -68.7347    1.3190 H         1 SUB1        0.056
     41 H          60.8241  -67.5462   -0.7212 H         1 SUB1        0.060
     42 H          60.8108  -65.0614   -0.7857 H         1 SUB1        0.056
@<TRIPOS>BOND
     1    1    2 1  
     2    2    3 1  
     3    3    4 1  
     4    3   10 1  
     5    4    5 1  
     6    4    6 1  
     7    6    7 1  
     8    6    8 1  
     9    8    9 1  
    10    8   14 1  
    11   10   11 1  
    12   10   14 1  
    13   11   12 2  
    14   12   13 1  
    15   12   15 1  
    16   13   14 2  
    17   15   16 1  
    18   16   17 1  
    19   17   18 ar 
    20   17   20 ar 
    21   18   19 ar 
    22   19   22 ar 
    23   20   21 ar 
    24   21   22 ar 
    25    1   23 1  
    26    2   24 1  
    27    2   25 1  
    28    3   26 1  
    29    4   27 1  
    30    5   28 1  
    31    6   29 1  
    32    7   30 1  
    33    8   31 1  
    34    9   32 1  
    35   11   33 1  
    36   15   34 1  
    37   15   35 1  
    38   16   36 1  
    39   16   37 1  
    40   18   38 1  
    41   19   39 1  
    42   20   40 1  
    43   21   41 1  
    44   22   42 1  
@<TRIPOS>SUBSTRUCTURE
     1 SUB1        1 GROUP

