2cer_ligand
  -I-interpret- 

 42 44  0  0  0  0  0  0  0  0999 V2000
   61.9980  -69.5540    8.8200 O   0  0  0  0  0
   62.3810  -70.9020    9.0160 C   0  0  0  0  0
   63.6920  -71.1720    8.3120 C   0  0  0  0  0
   64.9100  -70.6240    9.0650 C   0  0  0  0  0
   64.9150  -71.0990   10.4180 O   0  0  0  0  0
   66.2050  -71.0060    8.2880 C   0  0  0  0  0
   67.4380  -70.6500    8.9610 O   0  0  0  0  0
   66.2060  -70.3660    6.9050 C   0  0  0  0  0
   67.0040  -71.1800    6.0520 O   0  0  0  0  0
   63.6890  -70.5460    6.9690 N   0  0  0  0  0
   62.6400  -70.2110    6.2020 C   0  0  0  0  0
   63.1330  -69.6510    5.0360 C   0  0  0  0  0
   64.4810  -69.6560    5.1740 N   0  0  0  0  0
   64.8200  -70.1970    6.3540 C   0  0  0  0  0
   62.3150  -69.0980    3.8420 C   0  0  0  0  0
   62.5130  -67.5770    3.7060 C   0  0  0  0  0
   62.0240  -66.9120    2.4140 C   0  0  0  0  0
   62.0150  -65.5100    2.3620 C   0  0  0  0  0
   61.5800  -64.8320    1.2190 C   0  0  0  0  0
   61.5910  -67.6450    1.2920 C   0  0  0  0  0
   61.1580  -66.9780    0.1470 C   0  0  0  0  0
   61.1520  -65.5770    0.1120 C   0  0  0  0  0
   61.8943  -69.3853    7.8806 H   0  0  0  0  0
   61.6118  -71.5574    8.6074 H   0  0  0  0  0
   62.5003  -71.0904   10.0829 H   0  0  0  0  0
   63.7763  -72.2572    8.2551 H   0  0  0  0  0
   64.8629  -69.5364    9.1190 H   0  0  0  0  0
   65.6821  -70.7482   10.8763 H   0  0  0  0  0
   66.1809  -72.0937    8.2215 H   0  0  0  0  0
   68.1850  -70.9174    8.4205 H   0  0  0  0  0
   66.6217  -69.3606    6.9721 H   0  0  0  0  0
   67.0214  -70.7979    5.1714 H   0  0  0  0  0
   61.5888  -70.3541    6.4522 H   0  0  0  0  0
   61.2582  -69.3022    4.0137 H   0  0  0  0  0
   62.6562  -69.5814    2.9266 H   0  0  0  0  0
   63.5912  -67.4185    3.7275 H   0  0  0  0  0
   61.9226  -67.1316    4.5067 H   0  0  0  0  0
   62.3528  -64.9396    3.2272 H   0  0  0  0  0
   61.5739  -63.7424    1.1896 H   0  0  0  0  0
   61.5945  -68.7347    1.3190 H   0  0  0  0  0
   60.8241  -67.5462   -0.7212 H   0  0  0  0  0
   60.8108  -65.0614   -0.7857 H   0  0  0  0  0
  1  2  1  0  0  0
  2  3  1  0  0  0
  3  4  1  0  0  0
  3 10  1  0  0  0
  4  5  1  0  0  0
  4  6  1  0  0  0
  6  7  1  0  0  0
  6  8  1  0  0  0
  8  9  1  0  0  0
  8 14  1  0  0  0
 10 11  1  0  0  0
 10 14  1  0  0  0
 11 12  2  0  0  0
 12 13  1  0  0  0
 12 15  1  0  0  0
 13 14  2  0  0  0
 15 16  1  0  0  0
 16 17  1  0  0  0
 17 18  4  0  0  0
 17 20  4  0  0  0
 18 19  4  0  0  0
 19 22  4  0  0  0
 20 21  4  0  0  0
 21 22  4  0  0  0
  1 23  1  0  0  0
  2 24  1  0  0  0
  2 25  1  0  0  0
  3 26  1  0  0  0
  4 27  1  0  0  0
  5 28  1  0  0  0
  6 29  1  0  0  0
  7 30  1  0  0  0
  8 31  1  0  0  0
  9 32  1  0  0  0
 11 33  1  0  0  0
 15 34  1  0  0  0
 15 35  1  0  0  0
 16 36  1  0  0  0
 16 37  1  0  0  0
 18 38  1  0  0  0
 19 39  1  0  0  0
 20 40  1  0  0  0
 21 41  1  0  0  0
 22 42  1  0  0  0
M  END
$$$$
