### 
### Created by X-TOOL on Mon Oct 24 22:27:40 2005
### 

@<TRIPOS>MOLECULE
1l83_ligand
   12    12     1     0     0
SMALL
GAST_HUCK


@<TRIPOS>ATOM
      1 CG         27.3850    5.8810    2.9280 C.ar      1 SUB1       -0.062
      2 CD1        26.4080    5.0860    3.5120 C.ar      1 SUB1       -0.062
      3 CD2        27.8910    6.9730    3.6200 C.ar      1 SUB1       -0.062
      4 CE1        25.9570    5.3520    4.8050 C.ar      1 SUB1       -0.062
      5 CE2        27.4410    7.2400    4.9130 C.ar      1 SUB1       -0.062
      6 CZ         26.4900    6.4180    5.5200 C.ar      1 SUB1       -0.062
      7 H11        27.7517    5.6497    1.9345 H         1 SUB1        0.062
      8 H21        25.9922    4.2517    2.9587 H         1 SUB1        0.062
      9 H31        28.6321    7.6150    3.1578 H         1 SUB1        0.062
     10 H41        25.1915    4.7278    5.2517 H         1 SUB1        0.062
     11 H51        27.8338    8.0946    5.4520 H         1 SUB1        0.062
     12 H61        26.1706    6.6090    6.5381 H         1 SUB1        0.062
@<TRIPOS>BOND
     1    3    5 ar 
     2    5    6 ar 
     3    6    4 ar 
     4    4    2 ar 
     5    2    1 ar 
     6    3    1 ar 
     7    1    7 1  
     8    2    8 1  
     9    3    9 1  
    10    4   10 1  
    11    5   11 1  
    12    6   12 1  
@<TRIPOS>SUBSTRUCTURE
     1 SUB1        1 GROUP

