1l83_ligand
  -I-interpret- 

 12 12  0  0  0  0  0  0  0  0999 V2000
   27.3850    5.8810    2.9280 C   0  0  0  0  0
   26.4080    5.0860    3.5120 C   0  0  0  0  0
   27.8910    6.9730    3.6200 C   0  0  0  0  0
   25.9570    5.3520    4.8050 C   0  0  0  0  0
   27.4410    7.2400    4.9130 C   0  0  0  0  0
   26.4900    6.4180    5.5200 C   0  0  0  0  0
   27.7517    5.6497    1.9345 H   0  0  0  0  0
   25.9922    4.2517    2.9587 H   0  0  0  0  0
   28.6321    7.6150    3.1578 H   0  0  0  0  0
   25.1915    4.7278    5.2517 H   0  0  0  0  0
   27.8338    8.0946    5.4520 H   0  0  0  0  0
   26.1706    6.6090    6.5381 H   0  0  0  0  0
  3  5  4  0  0  0
  5  6  4  0  0  0
  6  4  4  0  0  0
  4  2  4  0  0  0
  2  1  4  0  0  0
  3  1  4  0  0  0
  1  7  1  0  0  0
  2  8  1  0  0  0
  3  9  1  0  0  0
  4 10  1  0  0  0
  5 11  1  0  0  0
  6 12  1  0  0  0
M  END
$$$$
