### 
### Created by X-TOOL on Mon Oct 24 23:23:57 2005
### 

@<TRIPOS>MOLECULE
1ttm_ligand
   36    38     1     0     0
SMALL
GAST_HUCK


@<TRIPOS>ATOM
      1 S1         20.5690   26.4520   19.2310 S.o2      1 SUB1        0.179
      2 O1         21.3150   26.3360   20.6850 O.2       1 SUB1       -0.123
      3 O2         19.0570   27.0450   19.3460 O.2       1 SUB1       -0.123
      4 O3         21.2820   27.4270   18.5820 O.3       1 SUB1       -0.155
      5 N1         20.7390   25.0690   18.3140 N.am      1 SUB1       -0.238
      6 C1         21.7450   28.6190   19.0710 C.ar      1 SUB1        0.121
      7 C2         23.0690   28.7160   19.4890 C.ar      1 SUB1       -0.037
      8 C3         23.5700   29.9610   19.9990 C.ar      1 SUB1       -0.065
      9 C4         22.6950   31.1240   20.0790 C.ar      1 SUB1        0.011
     10 C5         21.2990   30.9990   19.6420 C.ar      1 SUB1        0.129
     11 C6         20.8240   29.7470   19.1310 C.ar      1 SUB1        0.007
     12 C7         23.2110   32.5060   20.6320 C.2       1 SUB1       -0.031
     13 C8         22.3350   33.5890   20.7000 C.2       1 SUB1        0.031
     14 C9         20.8620   33.4090   20.2290 C.2       1 SUB1        0.257
     15 C10        24.7000   32.6450   21.0920 C.3       1 SUB1       -0.021
     16 C11        22.7580   35.0200   21.2470 C.3       1 SUB1       -0.022
     17 O5         20.0950   34.3550   20.2900 O.2       1 SUB1       -0.382
     18 O4         20.2490   31.9870   19.6280 O.3       1 SUB1       -0.217
     19 C12        23.7850   35.0700   22.4410 C.3       1 SUB1       -0.046
     20 C13        23.9120   33.7640   23.2780 C.3       1 SUB1       -0.050
     21 C14        24.8480   32.7150   22.6220 C.3       1 SUB1       -0.043
     22 H51        20.2960   24.2202   18.6025 H         1 SUB1        0.166
     23 H52        21.2839   25.0887   17.4757 H         1 SUB1        0.166
     24 H71        23.7213   27.8523   19.4295 H         1 SUB1        0.048
     25 H81        24.6010   30.0363   20.3252 H         1 SUB1        0.058
     26 H111       19.7987   29.6410   18.7954 H         1 SUB1        0.048
     27 H151       25.1180   33.5644   20.6562 H         1 SUB1        0.043
     28 H152       25.2641   31.7753   20.7239 H         1 SUB1        0.043
     29 H161       21.8415   35.5293   21.5797 H         1 SUB1        0.038
     30 H162       23.2020   35.5752   20.4076 H         1 SUB1        0.038
     31 H191       23.4744   35.8776   23.1202 H         1 SUB1        0.028
     32 H192       24.7763   35.3020   22.0245 H         1 SUB1        0.028
     33 H201       22.9117   33.3203   23.3901 H         1 SUB1        0.027
     34 H202       24.3128   34.0203   24.2698 H         1 SUB1        0.027
     35 H211       25.8892   32.9772   22.8611 H         1 SUB1        0.029
     36 H212       24.6133   31.7257   23.0418 H         1 SUB1        0.029
@<TRIPOS>BOND
     1    1    2 2  
     2    1    3 2  
     3    1    4 1  
     4    1    5 am 
     5    4    6 1  
     6    6    7 ar 
     7    6   11 ar 
     8    7    8 ar 
     9    8    9 ar 
    10    9   10 ar 
    11    9   12 1  
    12   10   11 ar 
    13   10   18 1  
    14   12   13 2  
    15   12   15 1  
    16   13   14 1  
    17   13   16 1  
    18   14   17 2  
    19   14   18 1  
    20   15   21 1  
    21   16   19 1  
    22   19   20 1  
    23   20   21 1  
    24    5   22 1  
    25    5   23 1  
    26    7   24 1  
    27    8   25 1  
    28   11   26 1  
    29   15   27 1  
    30   15   28 1  
    31   16   29 1  
    32   16   30 1  
    33   19   31 1  
    34   19   32 1  
    35   20   33 1  
    36   20   34 1  
    37   21   35 1  
    38   21   36 1  
@<TRIPOS>SUBSTRUCTURE
     1 SUB1        1 GROUP

