### 
### Created by X-TOOL on Mon Oct 24 23:44:48 2005
### 

@<TRIPOS>MOLECULE
1a7x_ligand
  143   147     1     0     0
SMALL
GAST_HUCK


@<TRIPOS>ATOM
      1 O1         14.4790   12.4140   26.5780 O.3       1 SUB1       -0.260
      2 C1         15.5500   12.9690   27.1310 C.2       1 SUB1        0.262
      3 O2         15.5660   14.1610   27.4680 O.2       1 SUB1       -0.368
      4 C2         16.7630   12.0800   27.3200 C.3       1 SUB1        0.146
      5 C3         17.8950   12.5640   26.4520 C.3       1 SUB1       -0.011
      6 C4         17.7930   12.1590   24.9860 C.3       1 SUB1       -0.047
      7 C5         17.5540   10.6810   24.8570 C.3       1 SUB1       -0.032
      8 C6         16.2450   10.4500   25.5410 C.3       1 SUB1        0.038
      9 N1         16.5030   10.6880   26.9490 N.am      1 SUB1       -0.240
     10 C7         16.3400    9.7360   27.8560 C.2       1 SUB1        0.278
     11 O3         16.3970   10.0780   29.0410 O.2       1 SUB1       -0.361
     12 C8         16.1180    8.3890   27.4840 C.2       1 SUB1        0.293
     13 O4         17.0580    7.6350   27.2190 O.2       1 SUB1       -0.285
     14 C9         14.7210    7.8020   27.3730 C.3       1 SUB1        0.252
     15 C10        13.6920    8.4830   28.2900 C.3       1 SUB1        0.019
     16 C11        12.3080    8.1880   27.7500 C.3       1 SUB1       -0.018
     17 C12        12.1190    8.3720   26.2480 C.3       1 SUB1        0.087
     18 C13        13.1900    7.5410   25.5020 C.3       1 SUB1        0.112
     19 O5         14.4530    8.0180   25.9850 O.3       1 SUB1       -0.339
     20 O6         14.7060    6.4190   27.6800 O.3       1 SUB1       -0.364
     21 C34        13.8000    8.0040   29.7300 C.3       1 SUB1       -0.058
     22 O7         10.7670    8.0360   25.8810 O.3       1 SUB1       -0.377
     23 C42         9.8340    9.0720   26.2790 C.3       1 SUB1        0.037
     24 C14        13.2490    7.7120   23.9680 C.3       1 SUB1        0.087
     25 O8         12.2280    6.9500   23.3150 O.3       1 SUB1       -0.377
     26 C43        12.6050    5.5710   23.1520 C.3       1 SUB1        0.037
     27 C15        13.1630    9.1950   23.5750 C.3       1 SUB1       -0.020
     28 C16        13.3440    9.5530   22.0850 C.3       1 SUB1       -0.033
     29 C35        14.5330    8.7940   21.5080 C.3       1 SUB1       -0.061
     30 C17        12.0300    9.2440   21.3170 C.3       1 SUB1       -0.025
     31 C18        10.9730   10.3460   21.4990 C.2       1 SUB1       -0.081
     32 C36        11.0710   11.4750   20.4690 C.3       1 SUB1       -0.040
     33 C19        10.0810   10.3010   22.4780 C.2       1 SUB1       -0.088
     34 C20         9.1210   11.4180   22.7880 C.3       1 SUB1        0.041
     35 C37         7.7640   10.8880   23.1690 C.3       1 SUB1       -0.004
     36 C21         9.6800   12.1690   23.9720 C.2       1 SUB1        0.114
     37 O9          9.4270   11.8560   25.1390 O.2       1 SUB1       -0.390
     38 C22        10.5910   13.3210   23.6160 C.3       1 SUB1        0.049
     39 C23        11.4720   13.7780   24.7540 C.3       1 SUB1        0.078
     40 O10        11.9730   15.0220   24.2980 O.3       1 SUB1       -0.389
     41 C24        12.7060   12.8540   25.0370 C.3       1 SUB1        0.024
     42 C40        13.7630   12.8820   23.9360 C.3       1 SUB1       -0.056
     43 C25        13.4310   13.3460   26.2870 C.3       1 SUB1        0.118
     44 C26        12.5290   13.3860   27.4940 C.2       1 SUB1       -0.050
     45 C41        11.9390   12.0770   28.0180 C.3       1 SUB1       -0.038
     46 C27        12.3010   14.5500   28.0330 C.2       1 SUB1       -0.103
     47 C28        11.4060   14.6920   29.2330 C.3       1 SUB1       -0.033
     48 C29        12.1130   15.5140   30.2940 C.3       1 SUB1       -0.018
     49 C30        11.2430   15.8180   31.4740 C.3       1 SUB1        0.086
     50 C31        10.0160   16.5730   30.9860 C.3       1 SUB1        0.082
     51 C32         9.2710   15.7790   29.9390 C.3       1 SUB1       -0.023
     52 C33        10.1500   15.4040   28.7720 C.3       1 SUB1       -0.045
     53 O11        11.8580   16.5510   32.5350 O.3       1 SUB1       -0.377
     54 C44        12.6490   15.7470   33.4300 C.3       1 SUB1        0.037
     55 O12         9.1510   16.7890   32.0970 O.3       1 SUB1       -0.389
     56 C51         6.9040   10.5090   21.9490 C.3       1 SUB1        0.081
     57 O17         5.6960   10.1800   22.3990 O.3       1 SUB1       -0.264
     58 C50         4.7880   11.0610   22.0650 C.2       1 SUB1        0.321
     59 O23         5.0660   12.1420   21.5470 O.2       1 SUB1       -0.377
     60 N2          3.5520   10.6610   22.3750 N.am      1 SUB1       -0.251
     61 C49         2.4600   11.4810   21.9030 C.3       1 SUB1        0.066
     62 C47         1.1660   11.4970   22.5590 C.ar      1 SUB1       -0.021
     63 C46         1.2050   11.4910   23.9430 C.ar      1 SUB1       -0.058
     64 C45         0.0350   11.4920   24.6710 C.ar      1 SUB1       -0.068
     65 C39        -1.1810   11.4900   24.0270 C.ar      1 SUB1       -0.069
     66 C38        -1.2180   11.4980   22.6480 C.ar      1 SUB1       -0.068
     67 C48        -0.0500   11.4960   21.9060 C.ar      1 SUB1       -0.058
     68 H201       15.3765    5.9707   27.1622 H         1 SUB1        0.210
     69 H401       12.5575   15.3990   24.9704 H         1 SUB1        0.210
     70 H551        9.6158   17.2942   32.7702 H         1 SUB1        0.210
     71 H601        3.4090    9.7590   22.7540 H         1 SUB1        0.189
     72 H41        17.0626   12.1061   28.3781 H         1 SUB1        0.082
     73 H51        17.9201   13.6630   26.4915 H         1 SUB1        0.031
     74 H52        18.8366   12.1530   26.8449 H         1 SUB1        0.031
     75 H61        16.9536   12.6918   24.5154 H         1 SUB1        0.027
     76 H62        18.7319   12.4082   24.4700 H         1 SUB1        0.027
     77 H71        17.4859   10.3833   23.8003 H         1 SUB1        0.029
     78 H72        18.3483   10.1079   25.3576 H         1 SUB1        0.029
     79 H81        15.4826   11.1535   25.1753 H         1 SUB1        0.053
     80 H82        15.9027    9.4153   25.3922 H         1 SUB1        0.053
     81 H151       13.8667    9.5690   28.2850 H         1 SUB1        0.034
     82 H161       12.0657    7.1404   27.9821 H         1 SUB1        0.029
     83 H162       11.5944    8.8580   28.2518 H         1 SUB1        0.029
     84 H171       12.2665    9.4322   25.9948 H         1 SUB1        0.062
     85 H181       13.0460    6.4736   25.7254 H         1 SUB1        0.065
     86 H211       14.8096    8.2255   30.1063 H         1 SUB1        0.023
     87 H212       13.0618    8.5270   30.3557 H         1 SUB1        0.023
     88 H213       13.6302    6.9183   29.7779 H         1 SUB1        0.023
     89 H231        8.8184    8.7736   25.9797 H         1 SUB1        0.052
     90 H232        9.8618    9.2025   27.3708 H         1 SUB1        0.052
     91 H233       10.0903   10.0189   25.7815 H         1 SUB1        0.052
     92 H241       14.2252    7.3423   23.6211 H         1 SUB1        0.062
     93 H261       11.7885    5.0338   22.6473 H         1 SUB1        0.052
     94 H262       13.5140    5.5009   22.5366 H         1 SUB1        0.052
     95 H263       12.7817    5.1116   24.1357 H         1 SUB1        0.052
     96 H271       12.1703    9.5640   23.8722 H         1 SUB1        0.030
     97 H272       13.9451    9.7349   24.1289 H         1 SUB1        0.030
     98 H281       13.5375   10.6320   21.9939 H         1 SUB1        0.032
     99 H291       14.6473    9.0606   20.4469 H         1 SUB1        0.023
    100 H292       15.4513    9.0693   22.0474 H         1 SUB1        0.023
    101 H293       14.3612    7.7105   21.5885 H         1 SUB1        0.023
    102 H301       12.2525    9.1565   20.2433 H         1 SUB1        0.042
    103 H302       11.6081    8.2994   21.6907 H         1 SUB1        0.042
    104 H321       10.2827   12.2147   20.6724 H         1 SUB1        0.038
    105 H322       12.0519   11.9671   20.5441 H         1 SUB1        0.038
    106 H323       10.9305   11.0713   19.4555 H         1 SUB1        0.038
    107 H331       10.0402    9.4038   23.0939 H         1 SUB1        0.026
    108 H341        9.0331   12.0945   21.9251 H         1 SUB1        0.060
    109 H351        7.8926    9.9875   23.7874 H         1 SUB1        0.033
    110 H352        7.2255   11.6601   23.7381 H         1 SUB1        0.033
    111 H381       11.2457   13.0107   22.7884 H         1 SUB1        0.052
    112 H382        9.9735   14.1765   23.3052 H         1 SUB1        0.052
    113 H391       10.8878   13.8799   25.6804 H         1 SUB1        0.062
    114 H411       12.3544   11.8234   25.1927 H         1 SUB1        0.038
    115 H421       14.5880   12.2098   24.2144 H         1 SUB1        0.024
    116 H422       13.3255   12.5381   22.9872 H         1 SUB1        0.024
    117 H423       14.1563   13.9026   23.8195 H         1 SUB1        0.024
    118 H431       13.8372   14.3532   26.1124 H         1 SUB1        0.080
    119 H451       11.3114   12.2929   28.8952 H         1 SUB1        0.038
    120 H452       11.3185   11.6075   27.2405 H         1 SUB1        0.038
    121 H453       12.7479   11.3936   28.3158 H         1 SUB1        0.038
    122 H461       12.7674   15.4368   27.6064 H         1 SUB1        0.025
    123 H471       11.1385   13.7044   29.6367 H         1 SUB1        0.038
    124 H481       12.9899   14.9554   30.6532 H         1 SUB1        0.031
    125 H482       12.4321   16.4693   29.8520 H         1 SUB1        0.031
    126 H491       10.9230   14.8588   31.9069 H         1 SUB1        0.062
    127 H501       10.3181   17.5452   30.5695 H         1 SUB1        0.062
    128 H511        8.8899   14.8524   30.3930 H         1 SUB1        0.029
    129 H512        8.4336   16.3819   29.5579 H         1 SUB1        0.029
    130 H521       10.4280   16.3239   28.2369 H         1 SUB1        0.028
    131 H522        9.5787   14.7408   28.1059 H         1 SUB1        0.028
    132 H541       13.0789   16.3948   34.2081 H         1 SUB1        0.052
    133 H542       12.0162   14.9848   33.9080 H         1 SUB1        0.052
    134 H543       13.4662   15.2623   32.8758 H         1 SUB1        0.052
    135 H561        6.8175   11.3639   21.2623 H         1 SUB1        0.061
    136 H562        7.3446    9.6490   21.4235 H         1 SUB1        0.061
    137 H611        2.8160   12.5215   21.9250 H         1 SUB1        0.068
    138 H612        2.2622   11.1741   20.8654 H         1 SUB1        0.068
    139 H631        2.1599   11.4855   24.4560 H         1 SUB1        0.056
    140 H641        0.0727   11.4944   25.7543 H         1 SUB1        0.060
    141 H651       -2.1021   11.4822   24.5984 H         1 SUB1        0.056
    142 H661       -2.1749   11.5060   22.1388 H         1 SUB1        0.060
    143 H671       -0.0896   11.4937   20.8227 H         1 SUB1        0.056
@<TRIPOS>BOND
     1    1    2 1  
     2    1   43 1  
     3    2    3 2  
     4    2    4 1  
     5    4    5 1  
     6    4    9 1  
     7    5    6 1  
     8    6    7 1  
     9    7    8 1  
    10    8    9 1  
    11    9   10 am 
    12   10   11 2  
    13   10   12 2  
    14   12   13 2  
    15   12   14 1  
    16   14   15 1  
    17   14   19 1  
    18   14   20 1  
    19   15   16 1  
    20   15   21 1  
    21   16   17 1  
    22   17   18 1  
    23   17   22 1  
    24   18   19 1  
    25   18   24 1  
    26   20   68 1  
    27   22   23 1  
    28   24   25 1  
    29   24   27 1  
    30   25   26 1  
    31   27   28 1  
    32   28   29 1  
    33   28   30 1  
    34   30   31 1  
    35   31   32 1  
    36   31   33 2  
    37   33   34 1  
    38   34   35 1  
    39   34   36 1  
    40   35   56 1  
    41   36   37 2  
    42   36   38 1  
    43   38   39 1  
    44   39   40 1  
    45   39   41 1  
    46   40   69 1  
    47   41   42 1  
    48   41   43 1  
    49   43   44 1  
    50   44   45 1  
    51   44   46 2  
    52   46   47 1  
    53   47   48 1  
    54   47   52 1  
    55   48   49 1  
    56   49   50 1  
    57   49   53 1  
    58   50   51 1  
    59   50   55 1  
    60   51   52 1  
    61   53   54 1  
    62   55   70 1  
    63   56   57 1  
    64   57   58 1  
    65   58   59 2  
    66   58   60 am 
    67   60   61 1  
    68   60   71 1  
    69   61   62 1  
    70   62   63 ar 
    71   62   67 ar 
    72   63   64 ar 
    73   64   65 ar 
    74   65   66 ar 
    75   66   67 ar 
    76    4   72 1  
    77    5   73 1  
    78    5   74 1  
    79    6   75 1  
    80    6   76 1  
    81    7   77 1  
    82    7   78 1  
    83    8   79 1  
    84    8   80 1  
    85   15   81 1  
    86   16   82 1  
    87   16   83 1  
    88   17   84 1  
    89   18   85 1  
    90   21   86 1  
    91   21   87 1  
    92   21   88 1  
    93   23   89 1  
    94   23   90 1  
    95   23   91 1  
    96   24   92 1  
    97   26   93 1  
    98   26   94 1  
    99   26   95 1  
   100   27   96 1  
   101   27   97 1  
   102   28   98 1  
   103   29   99 1  
   104   29  100 1  
   105   29  101 1  
   106   30  102 1  
   107   30  103 1  
   108   32  104 1  
   109   32  105 1  
   110   32  106 1  
   111   33  107 1  
   112   34  108 1  
   113   35  109 1  
   114   35  110 1  
   115   38  111 1  
   116   38  112 1  
   117   39  113 1  
   118   41  114 1  
   119   42  115 1  
   120   42  116 1  
   121   42  117 1  
   122   43  118 1  
   123   45  119 1  
   124   45  120 1  
   125   45  121 1  
   126   46  122 1  
   127   47  123 1  
   128   48  124 1  
   129   48  125 1  
   130   49  126 1  
   131   50  127 1  
   132   51  128 1  
   133   51  129 1  
   134   52  130 1  
   135   52  131 1  
   136   54  132 1  
   137   54  133 1  
   138   54  134 1  
   139   56  135 1  
   140   56  136 1  
   141   61  137 1  
   142   61  138 1  
   143   63  139 1  
   144   64  140 1  
   145   65  141 1  
   146   66  142 1  
   147   67  143 1  
@<TRIPOS>SUBSTRUCTURE
     1 SUB1        1 GROUP

