1a7x_ligand
  -I-interpret- 

143147  0  0  0  0  0  0  0  0999 V2000
   14.4790   12.4140   26.5780 O   0  0  0  0  0
   15.5500   12.9690   27.1310 C   0  0  0  0  0
   15.5660   14.1610   27.4680 O   0  0  0  0  0
   16.7630   12.0800   27.3200 C   0  0  0  0  0
   17.8950   12.5640   26.4520 C   0  0  0  0  0
   17.7930   12.1590   24.9860 C   0  0  0  0  0
   17.5540   10.6810   24.8570 C   0  0  0  0  0
   16.2450   10.4500   25.5410 C   0  0  0  0  0
   16.5030   10.6880   26.9490 N   0  0  0  0  0
   16.3400    9.7360   27.8560 C   0  0  0  0  0
   16.3970   10.0780   29.0410 O   0  0  0  0  0
   16.1180    8.3890   27.4840 C   0  0  0  0  0
   17.0580    7.6350   27.2190 O   0  0  0  0  0
   14.7210    7.8020   27.3730 C   0  0  0  0  0
   13.6920    8.4830   28.2900 C   0  0  0  0  0
   12.3080    8.1880   27.7500 C   0  0  0  0  0
   12.1190    8.3720   26.2480 C   0  0  0  0  0
   13.1900    7.5410   25.5020 C   0  0  0  0  0
   14.4530    8.0180   25.9850 O   0  0  0  0  0
   14.7060    6.4190   27.6800 O   0  0  0  0  0
   13.8000    8.0040   29.7300 C   0  0  0  0  0
   10.7670    8.0360   25.8810 O   0  0  0  0  0
    9.8340    9.0720   26.2790 C   0  0  0  0  0
   13.2490    7.7120   23.9680 C   0  0  0  0  0
   12.2280    6.9500   23.3150 O   0  0  0  0  0
   12.6050    5.5710   23.1520 C   0  0  0  0  0
   13.1630    9.1950   23.5750 C   0  0  0  0  0
   13.3440    9.5530   22.0850 C   0  0  0  0  0
   14.5330    8.7940   21.5080 C   0  0  0  0  0
   12.0300    9.2440   21.3170 C   0  0  0  0  0
   10.9730   10.3460   21.4990 C   0  0  0  0  0
   11.0710   11.4750   20.4690 C   0  0  0  0  0
   10.0810   10.3010   22.4780 C   0  0  0  0  0
    9.1210   11.4180   22.7880 C   0  0  0  0  0
    7.7640   10.8880   23.1690 C   0  0  0  0  0
    9.6800   12.1690   23.9720 C   0  0  0  0  0
    9.4270   11.8560   25.1390 O   0  0  0  0  0
   10.5910   13.3210   23.6160 C   0  0  0  0  0
   11.4720   13.7780   24.7540 C   0  0  0  0  0
   11.9730   15.0220   24.2980 O   0  0  0  0  0
   12.7060   12.8540   25.0370 C   0  0  0  0  0
   13.7630   12.8820   23.9360 C   0  0  0  0  0
   13.4310   13.3460   26.2870 C   0  0  0  0  0
   12.5290   13.3860   27.4940 C   0  0  0  0  0
   11.9390   12.0770   28.0180 C   0  0  0  0  0
   12.3010   14.5500   28.0330 C   0  0  0  0  0
   11.4060   14.6920   29.2330 C   0  0  0  0  0
   12.1130   15.5140   30.2940 C   0  0  0  0  0
   11.2430   15.8180   31.4740 C   0  0  0  0  0
   10.0160   16.5730   30.9860 C   0  0  0  0  0
    9.2710   15.7790   29.9390 C   0  0  0  0  0
   10.1500   15.4040   28.7720 C   0  0  0  0  0
   11.8580   16.5510   32.5350 O   0  0  0  0  0
   12.6490   15.7470   33.4300 C   0  0  0  0  0
    9.1510   16.7890   32.0970 O   0  0  0  0  0
    6.9040   10.5090   21.9490 C   0  0  0  0  0
    5.6960   10.1800   22.3990 O   0  0  0  0  0
    4.7880   11.0610   22.0650 C   0  0  0  0  0
    5.0660   12.1420   21.5470 O   0  0  0  0  0
    3.5520   10.6610   22.3750 N   0  0  0  0  0
    2.4600   11.4810   21.9030 C   0  0  0  0  0
    1.1660   11.4970   22.5590 C   0  0  0  0  0
    1.2050   11.4910   23.9430 C   0  0  0  0  0
    0.0350   11.4920   24.6710 C   0  0  0  0  0
   -1.1810   11.4900   24.0270 C   0  0  0  0  0
   -1.2180   11.4980   22.6480 C   0  0  0  0  0
   -0.0500   11.4960   21.9060 C   0  0  0  0  0
   15.3765    5.9707   27.1622 H   0  0  0  0  0
   12.5575   15.3990   24.9704 H   0  0  0  0  0
    9.6158   17.2942   32.7702 H   0  0  0  0  0
    3.4090    9.7590   22.7540 H   0  0  0  0  0
   17.0626   12.1061   28.3781 H   0  0  0  0  0
   17.9201   13.6630   26.4915 H   0  0  0  0  0
   18.8366   12.1530   26.8449 H   0  0  0  0  0
   16.9536   12.6918   24.5154 H   0  0  0  0  0
   18.7319   12.4082   24.4700 H   0  0  0  0  0
   17.4859   10.3833   23.8003 H   0  0  0  0  0
   18.3483   10.1079   25.3576 H   0  0  0  0  0
   15.4826   11.1535   25.1753 H   0  0  0  0  0
   15.9027    9.4153   25.3922 H   0  0  0  0  0
   13.8667    9.5690   28.2850 H   0  0  0  0  0
   12.0657    7.1404   27.9821 H   0  0  0  0  0
   11.5944    8.8580   28.2518 H   0  0  0  0  0
   12.2665    9.4322   25.9948 H   0  0  0  0  0
   13.0460    6.4736   25.7254 H   0  0  0  0  0
   14.8096    8.2255   30.1063 H   0  0  0  0  0
   13.0618    8.5270   30.3557 H   0  0  0  0  0
   13.6302    6.9183   29.7779 H   0  0  0  0  0
    8.8184    8.7736   25.9797 H   0  0  0  0  0
    9.8618    9.2025   27.3708 H   0  0  0  0  0
   10.0903   10.0189   25.7815 H   0  0  0  0  0
   14.2252    7.3423   23.6211 H   0  0  0  0  0
   11.7885    5.0338   22.6473 H   0  0  0  0  0
   13.5140    5.5009   22.5366 H   0  0  0  0  0
   12.7817    5.1116   24.1357 H   0  0  0  0  0
   12.1703    9.5640   23.8722 H   0  0  0  0  0
   13.9451    9.7349   24.1289 H   0  0  0  0  0
   13.5375   10.6320   21.9939 H   0  0  0  0  0
   14.6473    9.0606   20.4469 H   0  0  0  0  0
   15.4513    9.0693   22.0474 H   0  0  0  0  0
   14.3612    7.7105   21.5885 H   0  0  0  0  0
   12.2525    9.1565   20.2433 H   0  0  0  0  0
   11.6081    8.2994   21.6907 H   0  0  0  0  0
   10.2827   12.2147   20.6724 H   0  0  0  0  0
   12.0519   11.9671   20.5441 H   0  0  0  0  0
   10.9305   11.0713   19.4555 H   0  0  0  0  0
   10.0402    9.4038   23.0939 H   0  0  0  0  0
    9.0331   12.0945   21.9251 H   0  0  0  0  0
    7.8926    9.9875   23.7874 H   0  0  0  0  0
    7.2255   11.6601   23.7381 H   0  0  0  0  0
   11.2457   13.0107   22.7884 H   0  0  0  0  0
    9.9735   14.1765   23.3052 H   0  0  0  0  0
   10.8878   13.8799   25.6804 H   0  0  0  0  0
   12.3544   11.8234   25.1927 H   0  0  0  0  0
   14.5880   12.2098   24.2144 H   0  0  0  0  0
   13.3255   12.5381   22.9872 H   0  0  0  0  0
   14.1563   13.9026   23.8195 H   0  0  0  0  0
   13.8372   14.3532   26.1124 H   0  0  0  0  0
   11.3114   12.2929   28.8952 H   0  0  0  0  0
   11.3185   11.6075   27.2405 H   0  0  0  0  0
   12.7479   11.3936   28.3158 H   0  0  0  0  0
   12.7674   15.4368   27.6064 H   0  0  0  0  0
   11.1385   13.7044   29.6367 H   0  0  0  0  0
   12.9899   14.9554   30.6532 H   0  0  0  0  0
   12.4321   16.4693   29.8520 H   0  0  0  0  0
   10.9230   14.8588   31.9069 H   0  0  0  0  0
   10.3181   17.5452   30.5695 H   0  0  0  0  0
    8.8899   14.8524   30.3930 H   0  0  0  0  0
    8.4336   16.3819   29.5579 H   0  0  0  0  0
   10.4280   16.3239   28.2369 H   0  0  0  0  0
    9.5787   14.7408   28.1059 H   0  0  0  0  0
   13.0789   16.3948   34.2081 H   0  0  0  0  0
   12.0162   14.9848   33.9080 H   0  0  0  0  0
   13.4662   15.2623   32.8758 H   0  0  0  0  0
    6.8175   11.3639   21.2623 H   0  0  0  0  0
    7.3446    9.6490   21.4235 H   0  0  0  0  0
    2.8160   12.5215   21.9250 H   0  0  0  0  0
    2.2622   11.1741   20.8654 H   0  0  0  0  0
    2.1599   11.4855   24.4560 H   0  0  0  0  0
    0.0727   11.4944   25.7543 H   0  0  0  0  0
   -2.1021   11.4822   24.5984 H   0  0  0  0  0
   -2.1749   11.5060   22.1388 H   0  0  0  0  0
   -0.0896   11.4937   20.8227 H   0  0  0  0  0
  1  2  1  0  0  0
  1 43  1  0  0  0
  2  3  2  0  0  0
  2  4  1  0  0  0
  4  5  1  0  0  0
  4  9  1  0  0  0
  5  6  1  0  0  0
  6  7  1  0  0  0
  7  8  1  0  0  0
  8  9  1  0  0  0
  9 10  1  0  0  0
 10 11  2  0  0  0
 10 12  2  0  0  0
 12 13  2  0  0  0
 12 14  1  0  0  0
 14 15  1  0  0  0
 14 19  1  0  0  0
 14 20  1  0  0  0
 15 16  1  0  0  0
 15 21  1  0  0  0
 16 17  1  0  0  0
 17 18  1  0  0  0
 17 22  1  0  0  0
 18 19  1  0  0  0
 18 24  1  0  0  0
 20 68  1  0  0  0
 22 23  1  0  0  0
 24 25  1  0  0  0
 24 27  1  0  0  0
 25 26  1  0  0  0
 27 28  1  0  0  0
 28 29  1  0  0  0
 28 30  1  0  0  0
 30 31  1  0  0  0
 31 32  1  0  0  0
 31 33  2  0  0  0
 33 34  1  0  0  0
 34 35  1  0  0  0
 34 36  1  0  0  0
 35 56  1  0  0  0
 36 37  2  0  0  0
 36 38  1  0  0  0
 38 39  1  0  0  0
 39 40  1  0  0  0
 39 41  1  0  0  0
 40 69  1  0  0  0
 41 42  1  0  0  0
 41 43  1  0  0  0
 43 44  1  0  0  0
 44 45  1  0  0  0
 44 46  2  0  0  0
 46 47  1  0  0  0
 47 48  1  0  0  0
 47 52  1  0  0  0
 48 49  1  0  0  0
 49 50  1  0  0  0
 49 53  1  0  0  0
 50 51  1  0  0  0
 50 55  1  0  0  0
 51 52  1  0  0  0
 53 54  1  0  0  0
 55 70  1  0  0  0
 56 57  1  0  0  0
 57 58  1  0  0  0
 58 59  2  0  0  0
 58 60  1  0  0  0
 60 61  1  0  0  0
 60 71  1  0  0  0
 61 62  1  0  0  0
 62 63  4  0  0  0
 62 67  4  0  0  0
 63 64  4  0  0  0
 64 65  4  0  0  0
 65 66  4  0  0  0
 66 67  4  0  0  0
  4 72  1  0  0  0
  5 73  1  0  0  0
  5 74  1  0  0  0
  6 75  1  0  0  0
  6 76  1  0  0  0
  7 77  1  0  0  0
  7 78  1  0  0  0
  8 79  1  0  0  0
  8 80  1  0  0  0
 15 81  1  0  0  0
 16 82  1  0  0  0
 16 83  1  0  0  0
 17 84  1  0  0  0
 18 85  1  0  0  0
 21 86  1  0  0  0
 21 87  1  0  0  0
 21 88  1  0  0  0
 23 89  1  0  0  0
 23 90  1  0  0  0
 23 91  1  0  0  0
 24 92  1  0  0  0
 26 93  1  0  0  0
 26 94  1  0  0  0
 26 95  1  0  0  0
 27 96  1  0  0  0
 27 97  1  0  0  0
 28 98  1  0  0  0
 29 99  1  0  0  0
 29100  1  0  0  0
 29101  1  0  0  0
 30102  1  0  0  0
 30103  1  0  0  0
 32104  1  0  0  0
 32105  1  0  0  0
 32106  1  0  0  0
 33107  1  0  0  0
 34108  1  0  0  0
 35109  1  0  0  0
 35110  1  0  0  0
 38111  1  0  0  0
 38112  1  0  0  0
 39113  1  0  0  0
 41114  1  0  0  0
 42115  1  0  0  0
 42116  1  0  0  0
 42117  1  0  0  0
 43118  1  0  0  0
 45119  1  0  0  0
 45120  1  0  0  0
 45121  1  0  0  0
 46122  1  0  0  0
 47123  1  0  0  0
 48124  1  0  0  0
 48125  1  0  0  0
 49126  1  0  0  0
 50127  1  0  0  0
 51128  1  0  0  0
 51129  1  0  0  0
 52130  1  0  0  0
 52131  1  0  0  0
 54132  1  0  0  0
 54133  1  0  0  0
 54134  1  0  0  0
 56135  1  0  0  0
 56136  1  0  0  0
 61137  1  0  0  0
 61138  1  0  0  0
 63139  1  0  0  0
 64140  1  0  0  0
 65141  1  0  0  0
 66142  1  0  0  0
 67143  1  0  0  0
M  END
$$$$
