1q8u_ligand
  -I-interpret- 

 44 46  0  0  0  0  0  0  0  0999 V2000
    9.0020   11.3030    4.8480 O   0  0  0  0  0
    8.8080    9.9310    4.3060 S   0  0  0  0  0
    8.5320    8.8530    5.2640 O   0  0  0  0  0
   10.1290    9.3450    3.3860 N   0  0  0  0  0
   10.5140    7.8890    3.6060 C   0  0  0  0  0
    9.5510    6.9010    2.9710 C   0  0  0  0  0
   11.9540    7.5010    3.2490 C   0  0  0  0  0
   12.8840    8.2120    4.2120 N   0  3  0  0  0
   13.3440    9.5160    3.5810 C   0  0  0  0  0
   12.2700   10.6190    3.5870 C   0  0  0  0  0
   11.0890   10.2490    2.6990 C   0  0  0  0  0
    7.3940    9.9380    3.2180 C   0  0  0  0  0
    5.9780    9.8950    3.6190 C   0  0  0  0  0
    5.3680    9.9110    4.9390 C   0  0  0  0  0
    6.0680   10.0340    6.2580 C   0  0  0  0  0
    5.0230    9.8180    2.5610 C   0  0  0  0  0
    5.4370    9.7960    1.2000 C   0  0  0  0  0
    6.7620    9.8350    0.8680 C   0  0  0  0  0
    7.7460    9.8780    1.8860 C   0  0  0  0  0
    3.6240    9.7490    2.8360 C   0  0  0  0  0
    3.1610    9.7220    4.0620 N   0  0  0  0  0
    4.0030    9.8280    5.1100 C   0  0  0  0  0
   10.4439    7.7361    4.6930 H   0  0  0  0  0
    9.9003    5.8783    3.1760 H   0  0  0  0  0
    8.5459    7.0288    3.3992 H   0  0  0  0  0
    9.5175    7.0565    1.8826 H   0  0  0  0  0
   12.0901    6.4141    3.3494 H   0  0  0  0  0
   12.1877    7.8148    2.2210 H   0  0  0  0  0
   12.3986    8.4162    5.0715 H   0  0  0  0  0
   13.6896    7.6363    4.4007 H   0  0  0  0  0
   14.2148    9.8912    4.1385 H   0  0  0  0  0
   13.6231    9.3238    2.5345 H   0  0  0  0  0
   11.9011   10.7630    4.6132 H   0  0  0  0  0
   12.7073   11.5556    3.2108 H   0  0  0  0  0
   11.4787    9.7462    1.8017 H   0  0  0  0  0
   10.5703   11.1761    2.4139 H   0  0  0  0  0
    5.3196   10.0130    7.0639 H   0  0  0  0  0
    6.7637    9.1928    6.3933 H   0  0  0  0  0
    6.6172   10.9860    6.3039 H   0  0  0  0  0
    4.6908    9.7476    0.4152 H   0  0  0  0  0
    7.0600    9.8330   -0.1742 H   0  0  0  0  0
    8.7950    9.8635    1.6130 H   0  0  0  0  0
    2.9251    9.7181    2.0080 H   0  0  0  0  0
    3.5951    9.8485    6.1141 H   0  0  0  0  0
  1  2  2  0  0  0
  2  3  2  0  0  0
  2  4  1  0  0  0
  2 12  1  0  0  0
  4  5  1  0  0  0
  4 11  1  0  0  0
  5  6  1  0  0  0
  5  7  1  0  0  0
  7  8  1  0  0  0
  8  9  1  0  0  0
  9 10  1  0  0  0
 10 11  1  0  0  0
 12 13  4  0  0  0
 12 19  4  0  0  0
 13 14  4  0  0  0
 13 16  4  0  0  0
 14 15  1  0  0  0
 14 22  4  0  0  0
 16 17  4  0  0  0
 16 20  4  0  0  0
 17 18  4  0  0  0
 18 19  4  0  0  0
 20 21  4  0  0  0
 21 22  4  0  0  0
  5 23  1  0  0  0
  6 24  1  0  0  0
  6 25  1  0  0  0
  6 26  1  0  0  0
  7 27  1  0  0  0
  7 28  1  0  0  0
  8 29  1  0  0  0
  8 30  1  0  0  0
  9 31  1  0  0  0
  9 32  1  0  0  0
 10 33  1  0  0  0
 10 34  1  0  0  0
 11 35  1  0  0  0
 11 36  1  0  0  0
 15 37  1  0  0  0
 15 38  1  0  0  0
 15 39  1  0  0  0
 17 40  1  0  0  0
 18 41  1  0  0  0
 19 42  1  0  0  0
 20 43  1  0  0  0
 22 44  1  0  0  0
M  END
$$$$
