### 
### Created by X-TOOL on Mon Oct 24 23:09:05 2005
### 

@<TRIPOS>MOLECULE
1q8u_ligand
   44    46     1     0     0
SMALL
GAST_HUCK


@<TRIPOS>ATOM
      1 O1          9.0020   11.3030    4.8480 O.2       1 SUB1       -0.150
      2 S5          8.8080    9.9310    4.3060 S.o2      1 SUB1        0.073
      3 O2          8.5320    8.8530    5.2640 O.2       1 SUB1       -0.150
      4 N21        10.1290    9.3450    3.3860 N.am      1 SUB1       -0.226
      5 C22        10.5140    7.8890    3.6060 C.3       1 SUB1        0.078
      6 C2M         9.5510    6.9010    2.9710 C.3       1 SUB1       -0.040
      7 C23        11.9540    7.5010    3.2490 C.3       1 SUB1       -0.014
      8 N24        12.8840    8.2120    4.2120 N.4       1 SUB1        0.228
      9 C25        13.3440    9.5160    3.5810 C.3       1 SUB1       -0.032
     10 C26        12.2700   10.6190    3.5870 C.3       1 SUB1        0.004
     11 C27        11.0890   10.2490    2.6990 C.3       1 SUB1        0.035
     12 C5          7.3940    9.9380    3.2180 C.ar      1 SUB1        0.123
     13 C10         5.9780    9.8950    3.6190 C.ar      1 SUB1        0.029
     14 C4          5.3680    9.9110    4.9390 C.ar      1 SUB1       -0.011
     15 CM          6.0680   10.0340    6.2580 C.3       1 SUB1       -0.023
     16 C9          5.0230    9.8180    2.5610 C.ar      1 SUB1        0.004
     17 C8          5.4370    9.7960    1.2000 C.ar      1 SUB1       -0.048
     18 C7          6.7620    9.8350    0.8680 C.ar      1 SUB1       -0.055
     19 C6          7.7460    9.8780    1.8860 C.ar      1 SUB1       -0.030
     20 C1          3.6240    9.7490    2.8360 C.ar      1 SUB1        0.010
     21 N2          3.1610    9.7220    4.0620 N.ar      1 SUB1       -0.308
     22 C3          4.0030    9.8280    5.1100 C.ar      1 SUB1        0.007
     23 H51        10.4439    7.7361    4.6930 H         1 SUB1        0.056
     24 H61         9.9003    5.8783    3.1760 H         1 SUB1        0.025
     25 H62         8.5459    7.0288    3.3992 H         1 SUB1        0.025
     26 H63         9.5175    7.0565    1.8826 H         1 SUB1        0.025
     27 H71        12.0901    6.4141    3.3494 H         1 SUB1        0.083
     28 H72        12.1877    7.8148    2.2210 H         1 SUB1        0.083
     29 H81        12.3986    8.4162    5.0715 H         1 SUB1        0.201
     30 H82        13.6896    7.6363    4.4007 H         1 SUB1        0.201
     31 H91        14.2148    9.8912    4.1385 H         1 SUB1        0.081
     32 H92        13.6231    9.3238    2.5345 H         1 SUB1        0.081
     33 H101       11.9011   10.7630    4.6132 H         1 SUB1        0.033
     34 H102       12.7073   11.5556    3.2108 H         1 SUB1        0.033
     35 H111       11.4787    9.7462    1.8017 H         1 SUB1        0.048
     36 H112       10.5703   11.1761    2.4139 H         1 SUB1        0.048
     37 H151        5.3196   10.0130    7.0639 H         1 SUB1        0.042
     38 H152        6.7637    9.1928    6.3933 H         1 SUB1        0.042
     39 H153        6.6172   10.9860    6.3039 H         1 SUB1        0.042
     40 H171        4.6908    9.7476    0.4152 H         1 SUB1        0.064
     41 H181        7.0600    9.8330   -0.1742 H         1 SUB1        0.064
     42 H191        8.7950    9.8635    1.6130 H         1 SUB1        0.066
     43 H201        2.9251    9.7181    2.0080 H         1 SUB1        0.079
     44 H221        3.5951    9.8485    6.1141 H         1 SUB1        0.069
@<TRIPOS>BOND
     1    1    2 2  
     2    2    3 2  
     3    2    4 1  
     4    2   12 1  
     5    4    5 1  
     6    4   11 1  
     7    5    6 1  
     8    5    7 1  
     9    7    8 1  
    10    8    9 1  
    11    9   10 1  
    12   10   11 1  
    13   12   13 ar 
    14   12   19 ar 
    15   13   14 ar 
    16   13   16 ar 
    17   14   15 1  
    18   14   22 ar 
    19   16   17 ar 
    20   16   20 ar 
    21   17   18 ar 
    22   18   19 ar 
    23   20   21 ar 
    24   21   22 ar 
    25    5   23 1  
    26    6   24 1  
    27    6   25 1  
    28    6   26 1  
    29    7   27 1  
    30    7   28 1  
    31    8   29 1  
    32    8   30 1  
    33    9   31 1  
    34    9   32 1  
    35   10   33 1  
    36   10   34 1  
    37   11   35 1  
    38   11   36 1  
    39   15   37 1  
    40   15   38 1  
    41   15   39 1  
    42   17   40 1  
    43   18   41 1  
    44   19   42 1  
    45   20   43 1  
    46   22   44 1  
@<TRIPOS>SUBSTRUCTURE
     1 SUB1        1 GROUP

