1re8_ligand
  -I-interpret- 

 61 64  0  0  0  0  0  0  0  0999 V2000
   17.2500   39.0190   20.1380 O   0  0  0  0  0
   15.9620   39.3050   19.9190 C   0  0  0  0  0
   15.5600   40.6340   19.7310 C   0  0  0  0  0
   14.2200   40.9310   19.5050 C   0  0  0  0  0
   13.2670   39.8980   19.4620 C   0  0  0  0  0
   13.6730   38.5730   19.6400 C   0  0  0  0  0
   15.0220   38.2770   19.8690 C   0  0  0  0  0
   11.9300   40.1900   19.2320 C   0  0  0  0  0
   11.5140   41.3510   19.4060 O   0  0  0  0  0
   11.0860   39.2270   18.8290 N   0  0  0  0  0
    9.6810   39.2580   19.2150 C   0  0  0  0  0
    8.6060   39.5970   18.1760 C   0  0  0  0  0
    7.3800   38.7050   18.0430 C   0  0  0  0  0
    6.3740   39.0360   19.1410 C   0  0  0  0  0
    6.9100   38.6030   20.5000 C   0  0  0  0  0
    7.9670   39.5040   20.9410 N   0  0  0  0  0
    9.2740   38.9430   20.6460 C   0  0  0  0  0
    8.7430   40.7760   17.3730 O   0  0  0  0  0
    8.2870   40.5830   16.0360 C   0  0  0  0  0
    8.5550   39.5230   15.4270 O   0  0  0  0  0
    7.5560   41.5820   15.4020 C   0  0  0  0  0
    7.5900   41.6930   14.0050 C   0  0  0  0  0
    6.8540   42.6900   13.3670 C   0  0  0  0  0
    6.0850   43.6000   14.1060 C   0  0  0  0  0
    6.0590   43.4990   15.5040 C   0  0  0  0  0
    6.7910   42.4860   16.1490 C   0  0  0  0  0
    5.3620   44.5860   13.4360 C   0  0  0  0  0
    4.9900   44.3650   12.2710 O   0  0  0  0  0
    5.0260   45.8130   14.0180 C   0  0  0  0  0
    3.6740   46.1440   14.1670 C   0  0  0  0  0
    3.3040   47.3720   14.7390 C   0  0  0  0  0
    4.2900   48.2590   15.1650 C   0  0  0  0  0
    5.6400   47.9370   15.0230 C   0  0  0  0  0
    6.0170   46.7200   14.4480 C   0  0  0  0  0
    7.3150   46.4200   14.3260 O   0  0  0  0  0
   17.3513   38.0804   20.2436 H   0  0  0  0  0
   16.2938   41.4313   19.7617 H   0  0  0  0  0
   13.9101   41.9599   19.3619 H   0  0  0  0  0
   12.9424   37.7731   19.6007 H   0  0  0  0  0
   15.3355   37.2486   20.0074 H   0  0  0  0  0
   11.4252   38.4798   18.2574 H   0  0  0  0  0
    9.7733   40.3234   19.4724 H   0  0  0  0  0
    9.1336   39.0039   17.4145 H   0  0  0  0  0
    7.6841   37.6517   18.1328 H   0  0  0  0  0
    6.9142   38.8697   17.0602 H   0  0  0  0  0
    5.4301   38.5086   18.9389 H   0  0  0  0  0
    6.1929   40.1209   19.1517 H   0  0  0  0  0
    7.3131   37.5825   20.4220 H   0  0  0  0  0
    6.0910   38.6187   21.2342 H   0  0  0  0  0
    7.8797   39.6590   22.0062 H   0  0  0  0  0
   10.0157   39.3723   21.3357 H   0  0  0  0  0
    9.2375   37.8518   20.7796 H   0  0  0  0  0
    8.1887   41.0035   13.4209 H   0  0  0  0  0
    6.8765   42.7627   12.2857 H   0  0  0  0  0
    5.4749   44.2014   16.0876 H   0  0  0  0  0
    6.7628   42.4047   17.2296 H   0  0  0  0  0
    2.9092   45.4492   13.8393 H   0  0  0  0  0
    2.2564   47.6284   14.8485 H   0  0  0  0  0
    4.0064   49.2059   15.6099 H   0  0  0  0  0
    6.3995   48.6333   15.3599 H   0  0  0  0  0
    7.4047   45.5660   13.9196 H   0  0  0  0  0
  1  2  1  0  0  0
  2  3  4  0  0  0
  2  7  4  0  0  0
  3  4  4  0  0  0
  4  5  4  0  0  0
  5  6  4  0  0  0
  5  8  1  0  0  0
  6  7  4  0  0  0
  8  9  2  0  0  0
  8 10  1  0  0  0
 10 11  1  0  0  0
 11 12  1  0  0  0
 11 17  1  0  0  0
 12 13  1  0  0  0
 12 18  1  0  0  0
 13 14  1  0  0  0
 14 15  1  0  0  0
 15 16  1  0  0  0
 16 17  1  0  0  0
 18 19  1  0  0  0
 19 20  2  0  0  0
 19 21  1  0  0  0
 21 22  4  0  0  0
 21 26  4  0  0  0
 22 23  4  0  0  0
 23 24  4  0  0  0
 24 25  4  0  0  0
 24 27  1  0  0  0
 25 26  4  0  0  0
 27 28  2  0  0  0
 27 29  1  0  0  0
 29 30  4  0  0  0
 29 34  4  0  0  0
 30 31  4  0  0  0
 31 32  4  0  0  0
 32 33  4  0  0  0
 33 34  4  0  0  0
 34 35  1  0  0  0
  1 36  1  0  0  0
  3 37  1  0  0  0
  4 38  1  0  0  0
  6 39  1  0  0  0
  7 40  1  0  0  0
 10 41  1  0  0  0
 11 42  1  0  0  0
 12 43  1  0  0  0
 13 44  1  0  0  0
 13 45  1  0  0  0
 14 46  1  0  0  0
 14 47  1  0  0  0
 15 48  1  0  0  0
 15 49  1  0  0  0
 16 50  1  0  0  0
 17 51  1  0  0  0
 17 52  1  0  0  0
 22 53  1  0  0  0
 23 54  1  0  0  0
 25 55  1  0  0  0
 26 56  1  0  0  0
 30 57  1  0  0  0
 31 58  1  0  0  0
 32 59  1  0  0  0
 33 60  1  0  0  0
 35 61  1  0  0  0
M  END
$$$$
