### 
### Created by X-TOOL on Tue Oct 25 01:25:52 2005
### 

@<TRIPOS>MOLECULE
1a1b_ligand
   78    78     1     0     0
SMALL
GAST_HUCK


@<TRIPOS>ATOM
      1 H401       43.8651  -10.0472   36.6279 H         1 SUB1        0.047
      2 H402       45.5912   -9.5533   36.6856 H         1 SUB1        0.047
      3 H403       44.4502   -8.7040   35.5886 H         1 SUB1        0.047
      4 H421       43.1296   -6.5773   39.3352 H         1 SUB1        0.082
      5 H451       40.7364   -6.8995   40.1725 H         1 SUB1        0.044
      6 H452       40.6580   -8.3735   39.1488 H         1 SUB1        0.044
      7 H471       40.1127   -8.1894   36.9151 H         1 SUB1       -0.021
      8 H481       41.4384   -4.7040   38.9586 H         1 SUB1       -0.021
      9 H491       39.5697   -6.8313   34.9395 H         1 SUB1       -0.018
     10 H501       40.9175   -3.3216   36.9851 H         1 SUB1       -0.018
     11 H591       44.2195   -8.6623   42.9892 H         1 SUB1        0.080
     12 H621       44.2281   -7.1164   44.8937 H         1 SUB1        0.035
     13 H622       43.3249   -5.9213   43.9023 H         1 SUB1        0.035
     14 H631       45.6753   -5.3819   44.0353 H         1 SUB1        0.049
     15 H632       45.1805   -5.7813   42.3554 H         1 SUB1        0.049
     16 H691       43.4331  -10.2583   46.2790 H         1 SUB1        0.052
     17 H692       44.3730   -9.2471   45.1297 H         1 SUB1        0.052
     18 H701       43.7436  -10.6877   43.2521 H         1 SUB1        0.029
     19 H702       42.6093  -11.6167   44.2900 H         1 SUB1        0.029
     20 H711       44.3317  -12.6936   45.4350 H         1 SUB1        0.027
     21 H712       45.5299  -11.4130   45.0460 H         1 SUB1        0.027
     22 H721       45.9269  -13.4394   43.6983 H         1 SUB1        0.026
     23 H722       45.4506  -12.0474   42.6677 H         1 SUB1        0.026
     24 H731       44.3417  -14.1319   41.9302 H         1 SUB1        0.023
     25 H732       43.1397  -12.9397   42.5305 H         1 SUB1        0.023
     26 H733       43.6160  -14.3317   43.5611 H         1 SUB1        0.023
     27 H741       40.8324  -10.5049   45.7104 H         1 SUB1        0.052
     28 H742       40.1812   -8.9608   45.0636 H         1 SUB1        0.052
     29 H751       42.1990   -9.0149   47.3471 H         1 SUB1        0.029
     30 H752       40.4415   -9.2238   47.6540 H         1 SUB1        0.029
     31 H761       39.9586   -6.9738   46.9188 H         1 SUB1        0.027
     32 H762       41.6122   -6.7636   46.2496 H         1 SUB1        0.027
     33 H771       42.5321   -7.2527   48.5495 H         1 SUB1        0.026
     34 H772       40.8467   -7.2582   49.1710 H         1 SUB1        0.026
     35 H781       41.9123   -5.0452   49.4843 H         1 SUB1        0.023
     36 H782       40.5322   -4.9488   48.3386 H         1 SUB1        0.023
     37 H783       42.2176   -4.9433   47.7171 H         1 SUB1        0.023
     38 C          44.2360   -8.1990   37.6730 C.2       1 SUB1        0.175
     39 O          44.8900   -7.1680   37.7910 O.2       1 SUB1       -0.397
     40 CH3        44.5580   -9.1950   36.5670 C.3       1 SUB1        0.026
     41 N          43.1070   -8.4040   38.3330 N.am      1 SUB1       -0.264
     42 CA         42.6420   -7.5610   39.4030 C.3       1 SUB1        0.138
     43 C          42.9860   -8.1930   40.7250 C.2       1 SUB1        0.206
     44 O          43.0380   -9.4310   40.8380 O.2       1 SUB1       -0.394
     45 CB         41.1280   -7.3860   39.2670 C.3       1 SUB1       -0.000
     46 CG         40.8020   -6.5290   38.0580 C.ar      1 SUB1       -0.145
     47 CD1        40.2830   -7.1190   36.9330 C.ar      1 SUB1       -0.179
     48 CD2        41.0250   -5.1690   38.0710 C.ar      1 SUB1       -0.179
     49 CE1        39.9770   -6.3570   35.8250 C.ar      1 SUB1       -0.140
     50 CE2        40.7290   -4.3890   36.9680 C.ar      1 SUB1       -0.140
     51 CZ         40.1880   -4.9880   35.8390 C.ar      1 SUB1        0.074
     52 OH         39.7000   -4.1850   34.7380 O.3       1 SUB1       -0.110
     53 P          40.5630   -3.9720   33.4060 P.3       1 SUB1        0.476
     54 O1P        40.4000   -5.2520   32.7070 O.co2     1 SUB1       -0.376
     55 O2P        39.8760   -2.8040   32.8150 O.co2     1 SUB1       -0.376
     56 O3P        41.9290   -3.6980   33.9550 O.co2     1 SUB1       -0.376
     57 H411       42.5570   -9.1730   38.0790 H         1 SUB1        0.188
     58 N          43.2010   -7.3590   41.7220 N.am      1 SUB1       -0.263
     59 CA         43.4870   -7.8450   43.0630 C.3       1 SUB1        0.134
     60 C          42.2290   -8.3700   43.7890 C.2       1 SUB1        0.204
     61 O          41.1100   -7.9850   43.4110 O.2       1 SUB1       -0.394
     62 CB         44.0590   -6.7400   43.8740 C.3       1 SUB1       -0.001
     63 CG         45.3490   -6.1890   43.3630 C.3       1 SUB1       -0.010
     64 CD         46.4500   -7.2250   43.2850 C.2       1 SUB1        0.028
     65 OE1        46.6540   -7.9680   44.2480 O.co2     1 SUB1       -0.567
     66 OE2        47.1120   -7.2700   42.2500 O.co2     1 SUB1       -0.567
     67 H581       43.1680   -6.3940   41.5570 H         1 SUB1        0.188
     68 N          42.2650   -9.2250   44.8290 N.am      1 SUB1       -0.271
     69 C1         43.4990   -9.9060   45.2390 C.3       1 SUB1        0.034
     70 C2         43.5630  -11.0690   44.2680 C.3       1 SUB1       -0.032
     71 C3         44.6800  -11.9950   44.6600 C.3       1 SUB1       -0.052
     72 C4         45.1020  -12.7650   43.4250 C.3       1 SUB1       -0.056
     73 C5         43.9700  -13.6010   42.8190 C.3       1 SUB1       -0.065
     74 C1'        41.0240   -9.4280   45.5940 C.3       1 SUB1        0.034
     75 C2'        41.1890   -8.7770   46.9820 C.3       1 SUB1       -0.032
     76 C3'        41.0170   -7.2490   47.0370 C.3       1 SUB1       -0.052
     77 C4'        41.5180   -6.8540   48.3990 C.3       1 SUB1       -0.056
     78 C5'        41.5470   -5.3450   48.4910 C.3       1 SUB1       -0.065
@<TRIPOS>BOND
     1   40    1 1  
     2   40    2 1  
     3   40    3 1  
     4   42    4 1  
     5   45    5 1  
     6   45    6 1  
     7   47    7 1  
     8   48    8 1  
     9   49    9 1  
    10   50   10 1  
    11   59   11 1  
    12   62   12 1  
    13   62   13 1  
    14   63   14 1  
    15   63   15 1  
    16   69   16 1  
    17   69   17 1  
    18   70   18 1  
    19   70   19 1  
    20   71   20 1  
    21   71   21 1  
    22   72   22 1  
    23   72   23 1  
    24   73   24 1  
    25   73   25 1  
    26   73   26 1  
    27   74   27 1  
    28   74   28 1  
    29   75   29 1  
    30   75   30 1  
    31   76   31 1  
    32   76   32 1  
    33   77   33 1  
    34   77   34 1  
    35   78   35 1  
    36   78   36 1  
    37   78   37 1  
    38   38   39 2  
    39   38   40 1  
    40   41   57 1  
    41   42   41 1  
    42   42   45 1  
    43   43   42 1  
    44   43   44 2  
    45   45   46 1  
    46   46   48 ar 
    47   46   47 ar 
    48   47   49 ar 
    49   49   51 ar 
    50   51   52 1  
    51   50   51 ar 
    52   48   50 ar 
    53   52   53 1  
    54   53   56 2  
    55   53   55 2  
    56   53   54 2  
    57   60   59 1  
    58   59   62 1  
    59   59   58 1  
    60   58   67 1  
    61   62   63 1  
    62   63   64 1  
    63   64   65 2  
    64   64   66 2  
    65   60   61 2  
    66   68   74 1  
    67   68   69 1  
    68   69   70 1  
    69   70   71 1  
    70   71   72 1  
    71   72   73 1  
    72   74   75 1  
    73   75   76 1  
    74   76   77 1  
    75   77   78 1  
    76   41   38 am 
    77   58   43 am 
    78   60   68 am 
@<TRIPOS>SUBSTRUCTURE
     1 SUB1        1 GROUP

