1tng_ligand
  -I-interpret- 

 24 24  0  0  0  0  0  0  0  0999 V2000
   30.3554   15.5388   17.4089 H   0  0  0  0  0
   30.5094   13.3142   16.3133 H   0  0  0  0  0
   28.7395   13.1036   16.5363 H   0  0  0  0  0
   30.7949   13.5120   18.7676 H   0  0  0  0  0
   30.0175   11.9553   18.3214 H   0  0  0  0  0
   28.9172   13.0879   20.2910 H   0  0  0  0  0
   27.8039   12.8324   18.9046 H   0  0  0  0  0
   29.1619   15.4493   19.7511 H   0  0  0  0  0
   27.4056   15.0724   19.7561 H   0  0  0  0  0
   27.3910   14.8663   17.3233 H   0  0  0  0  0
   28.0967   16.4524   17.7847 H   0  0  0  0  0
   28.8255   16.5865   15.6043 H   0  0  0  0  0
   28.6189   14.9059   15.0048 H   0  0  0  0  0
   29.4710   15.0640   16.9590 C   0  0  0  0  0
   29.6470   13.5710   16.9460 C   0  0  0  0  0
   29.8870   13.0470   18.3560 C   0  0  0  0  0
   28.6840   13.3890   19.2590 C   0  0  0  0  0
   28.3610   14.8940   19.2410 C   0  0  0  0  0
   28.2560   15.3640   17.7860 C   0  0  0  0  0
   29.2860   15.5890   15.5510 C   0  0  0  0  0
   30.5350   15.6930   14.8290 N   0  3  0  0  0
   30.4070   16.1360   13.8820 H   0  0  0  0  0
   31.0320   14.7900   14.6600 H   0  0  0  0  0
   31.1910   16.3680   15.2870 H   0  0  0  0  0
 14  1  1  0  0  0
 15  2  1  0  0  0
 15  3  1  0  0  0
 16  4  1  0  0  0
 16  5  1  0  0  0
 17  6  1  0  0  0
 17  7  1  0  0  0
 18  8  1  0  0  0
 18  9  1  0  0  0
 19 10  1  0  0  0
 19 11  1  0  0  0
 20 12  1  0  0  0
 20 13  1  0  0  0
 15 14  1  0  0  0
 14 19  1  0  0  0
 14 20  1  0  0  0
 16 15  1  0  0  0
 17 16  1  0  0  0
 17 18  1  0  0  0
 18 19  1  0  0  0
 20 21  1  0  0  0
 21 22  1  0  0  0
 21 23  1  0  0  0
 21 24  1  0  0  0
M  END
$$$$
