### 
### Created by X-TOOL on Mon Oct 24 22:39:23 2005
### 

@<TRIPOS>MOLECULE
1tng_ligand
   24    24     1     0     0
SMALL
GAST_HUCK


@<TRIPOS>ATOM
      1 H141       30.3554   15.5388   17.4089 H         1 SUB1        0.035
      2 H151       30.5094   13.3142   16.3133 H         1 SUB1        0.027
      3 H152       28.7395   13.1036   16.5363 H         1 SUB1        0.027
      4 H161       30.7949   13.5120   18.7676 H         1 SUB1        0.026
      5 H162       30.0175   11.9553   18.3214 H         1 SUB1        0.026
      6 H171       28.9172   13.0879   20.2910 H         1 SUB1        0.026
      7 H172       27.8039   12.8324   18.9046 H         1 SUB1        0.026
      8 H181       29.1619   15.4493   19.7511 H         1 SUB1        0.026
      9 H182       27.4056   15.0724   19.7561 H         1 SUB1        0.026
     10 H191       27.3910   14.8663   17.3233 H         1 SUB1        0.027
     11 H192       28.0967   16.4524   17.7847 H         1 SUB1        0.027
     12 H201       28.8255   16.5865   15.6043 H         1 SUB1        0.082
     13 H202       28.6189   14.9059   15.0048 H         1 SUB1        0.082
     14 C1         29.4710   15.0640   16.9590 C.3       1 SUB1       -0.001
     15 C2         29.6470   13.5710   16.9460 C.3       1 SUB1       -0.045
     16 C3         29.8870   13.0470   18.3560 C.3       1 SUB1       -0.053
     17 C4         28.6840   13.3890   19.2590 C.3       1 SUB1       -0.053
     18 C5         28.3610   14.8940   19.2410 C.3       1 SUB1       -0.053
     19 C6         28.2560   15.3640   17.7860 C.3       1 SUB1       -0.045
     20 CM         29.2860   15.5890   15.5510 C.3       1 SUB1       -0.032
     21 N          30.5350   15.6930   14.8290 N.4       1 SUB1        0.219
     22 H211       30.4070   16.1360   13.8820 H         1 SUB1        0.199
     23 H212       31.0320   14.7900   14.6600 H         1 SUB1        0.199
     24 H213       31.1910   16.3680   15.2870 H         1 SUB1        0.199
@<TRIPOS>BOND
     1   14    1 1  
     2   15    2 1  
     3   15    3 1  
     4   16    4 1  
     5   16    5 1  
     6   17    6 1  
     7   17    7 1  
     8   18    8 1  
     9   18    9 1  
    10   19   10 1  
    11   19   11 1  
    12   20   12 1  
    13   20   13 1  
    14   15   14 1  
    15   14   19 1  
    16   14   20 1  
    17   16   15 1  
    18   17   16 1  
    19   17   18 1  
    20   18   19 1  
    21   20   21 1  
    22   21   22 1  
    23   21   23 1  
    24   21   24 1  
@<TRIPOS>SUBSTRUCTURE
     1 SUB1        1 GROUP

