### 
### Created by X-TOOL on Tue Oct 25 00:27:21 2005
### 

@<TRIPOS>MOLECULE
1aj7_ligand
   32    32     1     0     0
SMALL
GAST_HUCK


@<TRIPOS>ATOM
      1 C1         18.2960    6.1420   32.7200 C.ar      1 SUB1        0.130
      2 N1         18.7590    5.4540   31.5480 N.2       1 SUB1        0.037
      3 O1N        19.5520    6.1800   30.6400 O.2       1 SUB1       -0.153
      4 O2N        18.3840    4.1060   31.4170 O.2       1 SUB1       -0.153
      5 C2         18.6450    7.5080   32.9320 C.ar      1 SUB1       -0.028
      6 C3         18.1990    8.1850   34.0870 C.ar      1 SUB1       -0.010
      7 C4         17.4080    7.5010   35.0370 C.ar      1 SUB1        0.181
      8 C5         17.0520    6.1460   34.8330 C.ar      1 SUB1       -0.010
      9 C6         17.4930    5.4600   33.6840 C.ar      1 SUB1       -0.028
     10 O3P        17.0220    8.1540   36.2280 O.3       1 SUB1       -0.104
     11 P          17.8810    7.9590   37.4820 P.3       1 SUB1        0.366
     12 O1P        19.0780    8.7090   37.2570 O.co2     1 SUB1       -0.391
     13 O2P        18.3010    6.5960   37.5090 O.co2     1 SUB1       -0.391
     14 C7         17.0790    8.4080   39.0270 C.3       1 SUB1        0.115
     15 C8         17.9070    7.8650   40.1910 C.3       1 SUB1       -0.015
     16 C9         17.2700    8.0000   41.5820 C.3       1 SUB1       -0.039
     17 C10        16.7210    6.6450   42.0530 C.3       1 SUB1       -0.014
     18 C11        17.3220    6.0920   43.3420 C.2       1 SUB1        0.028
     19 O1         18.0430    5.1510   43.4370 O.co2     1 SUB1       -0.567
     20 O2         16.9010    6.8460   44.3750 O.co2     1 SUB1       -0.567
     21 H51        19.3000    8.0080   32.2450 H         1 SUB1        0.067
     22 H61        18.7820    9.0230   34.4210 H         1 SUB1        0.060
     23 H81        16.3280    5.6840   35.4740 H         1 SUB1        0.060
     24 H91        17.0340    4.5240   33.4290 H         1 SUB1        0.067
     25 H141       16.0840    7.9890   39.0560 H         1 SUB1        0.069
     26 H142       17.0220    9.4830   39.0990 H         1 SUB1        0.069
     27 H151       18.8530    8.3870   40.1940 H         1 SUB1        0.030
     28 H152       18.0930    6.8170   40.0010 H         1 SUB1        0.030
     29 H161       16.4620    8.7180   41.5490 H         1 SUB1        0.030
     30 H162       18.0100    8.3360   42.2920 H         1 SUB1        0.030
     31 H171       16.8340    5.9140   41.2680 H         1 SUB1        0.048
     32 H172       15.6720    6.7850   42.2500 H         1 SUB1        0.048
@<TRIPOS>BOND
     1    1    9 ar 
     2    1    5 ar 
     3    1    2 1  
     4    2    4 2  
     5    2    3 2  
     6    5   21 1  
     7    5    6 ar 
     8    6   22 1  
     9    6    7 ar 
    10    7   10 1  
    11    7    8 ar 
    12    8   23 1  
    13    8    9 ar 
    14    9   24 1  
    15   10   11 1  
    16   11   14 1  
    17   11   13 2  
    18   11   12 2  
    19   14   26 1  
    20   14   25 1  
    21   14   15 1  
    22   15   28 1  
    23   15   27 1  
    24   15   16 1  
    25   16   30 1  
    26   16   29 1  
    27   16   17 1  
    28   17   32 1  
    29   17   31 1  
    30   17   18 1  
    31   18   20 2  
    32   18   19 2  
@<TRIPOS>SUBSTRUCTURE
     1 SUB1        1 GROUP

