1aj7_ligand
  -I-interpret- 

 32 32  0  0  0  0  0  0  0  0999 V2000
   18.2960    6.1420   32.7200 C   0  0  0  0  0
   18.7590    5.4540   31.5480 N   0  0  0  0  0
   19.5520    6.1800   30.6400 O   0  0  0  0  0
   18.3840    4.1060   31.4170 O   0  0  0  0  0
   18.6450    7.5080   32.9320 C   0  0  0  0  0
   18.1990    8.1850   34.0870 C   0  0  0  0  0
   17.4080    7.5010   35.0370 C   0  0  0  0  0
   17.0520    6.1460   34.8330 C   0  0  0  0  0
   17.4930    5.4600   33.6840 C   0  0  0  0  0
   17.0220    8.1540   36.2280 O   0  0  0  0  0
   17.8810    7.9590   37.4820 P   0  0  0  0  0
   19.0780    8.7090   37.2570 O   0  5  0  0  0
   18.3010    6.5960   37.5090 O   0  0  0  0  0
   17.0790    8.4080   39.0270 C   0  0  0  0  0
   17.9070    7.8650   40.1910 C   0  0  0  0  0
   17.2700    8.0000   41.5820 C   0  0  0  0  0
   16.7210    6.6450   42.0530 C   0  0  0  0  0
   17.3220    6.0920   43.3420 C   0  0  0  0  0
   18.0430    5.1510   43.4370 O   0  0  0  0  0
   16.9010    6.8460   44.3750 O   0  5  0  0  0
   19.3000    8.0080   32.2450 H   0  0  0  0  0
   18.7820    9.0230   34.4210 H   0  0  0  0  0
   16.3280    5.6840   35.4740 H   0  0  0  0  0
   17.0340    4.5240   33.4290 H   0  0  0  0  0
   16.0840    7.9890   39.0560 H   0  0  0  0  0
   17.0220    9.4830   39.0990 H   0  0  0  0  0
   18.8530    8.3870   40.1940 H   0  0  0  0  0
   18.0930    6.8170   40.0010 H   0  0  0  0  0
   16.4620    8.7180   41.5490 H   0  0  0  0  0
   18.0100    8.3360   42.2920 H   0  0  0  0  0
   16.8340    5.9140   41.2680 H   0  0  0  0  0
   15.6720    6.7850   42.2500 H   0  0  0  0  0
  1  9  4  0  0  0
  1  5  4  0  0  0
  1  2  1  0  0  0
  2  4  2  0  0  0
  2  3  2  0  0  0
  5 21  1  0  0  0
  5  6  4  0  0  0
  6 22  1  0  0  0
  6  7  4  0  0  0
  7 10  1  0  0  0
  7  8  4  0  0  0
  8 23  1  0  0  0
  8  9  4  0  0  0
  9 24  1  0  0  0
 10 11  1  0  0  0
 11 14  1  0  0  0
 11 13  2  0  0  0
 11 12  1  0  0  0
 14 26  1  0  0  0
 14 25  1  0  0  0
 14 15  1  0  0  0
 15 28  1  0  0  0
 15 27  1  0  0  0
 15 16  1  0  0  0
 16 30  1  0  0  0
 16 29  1  0  0  0
 16 17  1  0  0  0
 17 32  1  0  0  0
 17 31  1  0  0  0
 17 18  1  0  0  0
 18 20  1  0  0  0
 18 19  2  0  0  0
M  END
$$$$
