### 
### Created by X-TOOL on Tue Oct 25 00:13:23 2005
### 

@<TRIPOS>MOLECULE
1ajq_ligand
   14    14     1     0     0
SMALL
GAST_HUCK


@<TRIPOS>ATOM
      1 S1         10.7570   34.9240   34.3440 S.3       1 SUB1       -0.042
      2 C2         11.8600   36.1590   33.8530 C.2       1 SUB1        0.026
      3 C3         11.4740   36.7610   32.6620 C.2       1 SUB1       -0.077
      4 C4         10.3000   36.1760   32.1380 C.2       1 SUB1       -0.091
      5 C5          9.7890   35.2230   32.9520 C.2       1 SUB1       -0.018
      6 C6         13.0850   36.5220   34.6440 C.3       1 SUB1        0.030
      7 C7         12.7140   37.8140   35.4420 C.2       1 SUB1        0.038
      8 O1         12.0650   38.7630   35.0850 O.co2     1 SUB1       -0.567
      9 O2         13.5080   37.7870   36.5060 O.co2     1 SUB1       -0.567
     10 H31        12.0106   37.5829   32.1903 H         1 SUB1        0.030
     11 H41         9.8555   36.4601   31.1853 H         1 SUB1        0.038
     12 H51         8.8576   34.6973   32.7467 H         1 SUB1        0.061
     13 H61        13.9313   36.7190   33.9695 H         1 SUB1        0.069
     14 H62        13.3489   35.7081   35.3354 H         1 SUB1        0.069
@<TRIPOS>BOND
     1    1    5 1  
     2    1    2 1  
     3    2    6 1  
     4    2    3 2  
     5    3    4 1  
     6    4    5 2  
     7    6    7 1  
     8    7    9 2  
     9    7    8 2  
    10    3   10 1  
    11    4   11 1  
    12    5   12 1  
    13    6   13 1  
    14    6   14 1  
@<TRIPOS>SUBSTRUCTURE
     1 SUB1        1 GROUP

