### 
### Created by X-TOOL on Mon Oct 24 22:19:52 2005
### 

@<TRIPOS>MOLECULE
1ciz_ligand
   64    68     1     0     0
SMALL
GAST_HUCK


@<TRIPOS>ATOM
      1 H91        27.9048   50.3059   -2.9921 H         1 SUB1        0.051
      2 H101       29.5871   49.4404   -1.3669 H         1 SUB1        0.060
      3 H121       26.7202   49.9494    1.8368 H         1 SUB1        0.060
      4 H131       33.5253   44.3869    0.2417 H         1 SUB1        0.222
      5 H141       28.3602   47.1494    2.7968 H         1 SUB1        0.075
      6 H151       20.2953   55.0042   -7.6028 H         1 SUB1        0.056
      7 H161       23.2053   51.6335   -4.2956 H         1 SUB1        0.046
      8 N1         25.4560   51.1780   -2.3930 N.3       1 SUB1       -0.252
      9 C2         27.6610   50.2570   -1.9370 C.ar      1 SUB1       -0.046
     10 C3         28.6140   49.7750   -1.0260 C.ar      1 SUB1       -0.047
     11 C4         28.2770   49.7360    0.3420 C.ar      1 SUB1        0.095
     12 C5         26.9820   50.0630    0.7910 C.ar      1 SUB1       -0.047
     13 N7         32.5770   44.3250    0.6390 N.pl3     1 SUB1       -0.289
     14 C8         29.0070   46.6580    2.0550 C.3       1 SUB1        0.081
     15 C10        20.9740   54.5130   -6.9150 C.ar      1 SUB1       -0.069
     16 C11        23.6950   52.6150   -4.2130 C.3       1 SUB1       -0.004
     17 C12        21.2610   55.1230   -5.6720 C.ar      1 SUB1       -0.069
     18 O1         28.9740   49.5700    2.8350 O.2       1 SUB1       -0.152
     19 O2         30.7430   49.9880    1.1760 O.2       1 SUB1       -0.152
     20 C1         26.3820   50.6810   -1.4920 C.ar      1 SUB1        0.029
     21 C6         26.0370   50.5360   -0.1270 C.ar      1 SUB1       -0.046
     22 S          29.5300   49.3390    1.5320 S.o2      1 SUB1        0.065
     23 C7         25.0140   52.0770   -4.7440 C.3       1 SUB1       -0.023
     24 C13        23.4350   52.6960   -2.7220 C.3       1 SUB1       -0.023
     25 C15        24.1100   51.5760   -1.9360 C.3       1 SUB1        0.020
     26 C18        25.7170   51.0580   -3.8440 C.3       1 SUB1        0.020
     27 C14        22.1510   54.4840   -4.7830 C.ar      1 SUB1       -0.060
     28 C16        22.7440   53.2500   -5.1440 C.ar      1 SUB1       -0.040
     29 C17        22.4440   52.6430   -6.3870 C.ar      1 SUB1       -0.060
     30 C19        21.5540   53.2750   -7.2800 C.ar      1 SUB1       -0.069
     31 N          29.9310   47.6640    1.5190 N.am      1 SUB1       -0.231
     32 C20        29.7920   45.5460    2.7920 C.3       1 SUB1       -0.005
     33 C9         28.1190   46.1410    0.9550 C.2       1 SUB1        0.051
     34 O3         26.8490   45.7360    1.2070 O.co2     1 SUB1       -0.564
     35 O4         28.5190   46.0620   -0.1600 O.co2     1 SUB1       -0.564
     36 C21        30.4940   41.4500   -0.6950 C.ar      1 SUB1       -0.077
     37 C22        31.6400   42.2650   -0.5800 C.ar      1 SUB1       -0.044
     38 C23        31.6280   43.3590    0.3160 C.ar      1 SUB1        0.060
     39 C24        30.4570   43.6210    1.0980 C.ar      1 SUB1       -0.021
     40 C25        29.3150   42.7940    0.9730 C.ar      1 SUB1       -0.075
     41 C26        29.3390   41.7040    0.0760 C.ar      1 SUB1       -0.079
     42 C27        32.0520   45.1740    1.5630 C.2       1 SUB1        0.017
     43 C28        30.7380   44.8020    1.8830 C.2       1 SUB1       -0.041
     44 H171       20.8034   56.0689   -5.4057 H         1 SUB1        0.060
     45 H211       25.0384   50.7919    0.2084 H         1 SUB1        0.051
     46 H231       25.6947   52.9290   -4.8882 H         1 SUB1        0.031
     47 H232       24.8186   51.5956   -5.7135 H         1 SUB1        0.031
     48 H241       23.8133   53.6605   -2.3524 H         1 SUB1        0.031
     49 H242       22.3497   52.6383   -2.5521 H         1 SUB1        0.031
     50 H251       24.1944   51.9043   -0.8895 H         1 SUB1        0.048
     51 H252       23.4612   50.6894   -1.9910 H         1 SUB1        0.048
     52 H261       25.3975   50.0541   -4.1605 H         1 SUB1        0.048
     53 H262       26.8007   51.1641   -3.9999 H         1 SUB1        0.048
     54 H271       22.3804   54.9370   -3.8253 H         1 SUB1        0.056
     55 H291       22.8973   51.6946   -6.6519 H         1 SUB1        0.056
     56 H301       21.3172   52.8181   -8.2341 H         1 SUB1        0.060
     57 H311       30.8089   47.3720    1.1395 H         1 SUB1        0.172
     58 H321       29.0732   44.8288    3.2149 H         1 SUB1        0.040
     59 H322       30.3733   46.0052    3.6051 H         1 SUB1        0.040
     60 H361       30.5005   40.6153   -1.3866 H         1 SUB1        0.053
     61 H371       32.5223   42.0543   -1.1735 H         1 SUB1        0.054
     62 H401       28.4278   42.9963    1.5621 H         1 SUB1        0.054
     63 H411       28.4707   41.0623   -0.0207 H         1 SUB1        0.051
     64 H421       32.5785   46.0241    1.9942 H         1 SUB1        0.079
@<TRIPOS>BOND
     1    9    1 1  
     2   10    2 1  
     3   12    3 1  
     4   13    4 1  
     5    8   26 1  
     6    8   25 1  
     7   20    8 1  
     8   21   20 ar 
     9    9   20 ar 
    10   10    9 ar 
    11   11   10 ar 
    12   22   11 1  
    13   11   12 ar 
    14   12   21 ar 
    15   22   18 2  
    16   22   19 2  
    17   31   22 1  
    18   14   31 1  
    19   32   14 1  
    20   14   33 1  
    21   33   35 2  
    22   33   34 2  
    23   43   32 1  
    24   43   42 2  
    25   39   43 1  
    26   39   40 ar 
    27   38   39 ar 
    28   38   13 1  
    29   38   37 ar 
    30   37   36 ar 
    31   36   41 ar 
    32   41   40 ar 
    33   13   42 1  
    34   25   24 1  
    35   24   16 1  
    36   16   23 1  
    37   16   28 1  
    38   28   29 ar 
    39   28   27 ar 
    40   27   17 ar 
    41   17   15 ar 
    42   15   30 ar 
    43   30   29 ar 
    44   23   26 1  
    45   14    5 1  
    46   15    6 1  
    47   16    7 1  
    48   17   44 1  
    49   21   45 1  
    50   23   46 1  
    51   23   47 1  
    52   24   48 1  
    53   24   49 1  
    54   25   50 1  
    55   25   51 1  
    56   26   52 1  
    57   26   53 1  
    58   27   54 1  
    59   29   55 1  
    60   30   56 1  
    61   31   57 1  
    62   32   58 1  
    63   32   59 1  
    64   36   60 1  
    65   37   61 1  
    66   40   62 1  
    67   41   63 1  
    68   42   64 1  
@<TRIPOS>SUBSTRUCTURE
     1 SUB1        1 GROUP

