1ciz_ligand
  -I-interpret- 

 64 68  0  0  0  0  0  0  0  0999 V2000
   27.9048   50.3059   -2.9921 H   0  0  0  0  0
   29.5871   49.4404   -1.3669 H   0  0  0  0  0
   26.7202   49.9494    1.8368 H   0  0  0  0  0
   33.5253   44.3869    0.2417 H   0  0  0  0  0
   28.3602   47.1494    2.7968 H   0  0  0  0  0
   20.2953   55.0042   -7.6028 H   0  0  0  0  0
   23.2053   51.6335   -4.2956 H   0  0  0  0  0
   25.4560   51.1780   -2.3930 N   0  0  0  0  0
   27.6610   50.2570   -1.9370 C   0  0  0  0  0
   28.6140   49.7750   -1.0260 C   0  0  0  0  0
   28.2770   49.7360    0.3420 C   0  0  0  0  0
   26.9820   50.0630    0.7910 C   0  0  0  0  0
   32.5770   44.3250    0.6390 N   0  0  0  0  0
   29.0070   46.6580    2.0550 C   0  0  0  0  0
   20.9740   54.5130   -6.9150 C   0  0  0  0  0
   23.6950   52.6150   -4.2130 C   0  0  0  0  0
   21.2610   55.1230   -5.6720 C   0  0  0  0  0
   28.9740   49.5700    2.8350 O   0  0  0  0  0
   30.7430   49.9880    1.1760 O   0  0  0  0  0
   26.3820   50.6810   -1.4920 C   0  0  0  0  0
   26.0370   50.5360   -0.1270 C   0  0  0  0  0
   29.5300   49.3390    1.5320 S   0  0  0  0  0
   25.0140   52.0770   -4.7440 C   0  0  0  0  0
   23.4350   52.6960   -2.7220 C   0  0  0  0  0
   24.1100   51.5760   -1.9360 C   0  0  0  0  0
   25.7170   51.0580   -3.8440 C   0  0  0  0  0
   22.1510   54.4840   -4.7830 C   0  0  0  0  0
   22.7440   53.2500   -5.1440 C   0  0  0  0  0
   22.4440   52.6430   -6.3870 C   0  0  0  0  0
   21.5540   53.2750   -7.2800 C   0  0  0  0  0
   29.9310   47.6640    1.5190 N   0  0  0  0  0
   29.7920   45.5460    2.7920 C   0  0  0  0  0
   28.1190   46.1410    0.9550 C   0  0  0  0  0
   26.8490   45.7360    1.2070 O   0  5  0  0  0
   28.5190   46.0620   -0.1600 O   0  0  0  0  0
   30.4940   41.4500   -0.6950 C   0  0  0  0  0
   31.6400   42.2650   -0.5800 C   0  0  0  0  0
   31.6280   43.3590    0.3160 C   0  0  0  0  0
   30.4570   43.6210    1.0980 C   0  0  0  0  0
   29.3150   42.7940    0.9730 C   0  0  0  0  0
   29.3390   41.7040    0.0760 C   0  0  0  0  0
   32.0520   45.1740    1.5630 C   0  0  0  0  0
   30.7380   44.8020    1.8830 C   0  0  0  0  0
   20.8034   56.0689   -5.4057 H   0  0  0  0  0
   25.0384   50.7919    0.2084 H   0  0  0  0  0
   25.6947   52.9290   -4.8882 H   0  0  0  0  0
   24.8186   51.5956   -5.7135 H   0  0  0  0  0
   23.8133   53.6605   -2.3524 H   0  0  0  0  0
   22.3497   52.6383   -2.5521 H   0  0  0  0  0
   24.1944   51.9043   -0.8895 H   0  0  0  0  0
   23.4612   50.6894   -1.9910 H   0  0  0  0  0
   25.3975   50.0541   -4.1605 H   0  0  0  0  0
   26.8007   51.1641   -3.9999 H   0  0  0  0  0
   22.3804   54.9370   -3.8253 H   0  0  0  0  0
   22.8973   51.6946   -6.6519 H   0  0  0  0  0
   21.3172   52.8181   -8.2341 H   0  0  0  0  0
   30.8089   47.3720    1.1395 H   0  0  0  0  0
   29.0732   44.8288    3.2149 H   0  0  0  0  0
   30.3733   46.0052    3.6051 H   0  0  0  0  0
   30.5005   40.6153   -1.3866 H   0  0  0  0  0
   32.5223   42.0543   -1.1735 H   0  0  0  0  0
   28.4278   42.9963    1.5621 H   0  0  0  0  0
   28.4707   41.0623   -0.0207 H   0  0  0  0  0
   32.5785   46.0241    1.9942 H   0  0  0  0  0
  9  1  1  0  0  0
 10  2  1  0  0  0
 12  3  1  0  0  0
 13  4  1  0  0  0
  8 26  1  0  0  0
  8 25  1  0  0  0
 20  8  1  0  0  0
 21 20  4  0  0  0
  9 20  4  0  0  0
 10  9  4  0  0  0
 11 10  4  0  0  0
 22 11  1  0  0  0
 11 12  4  0  0  0
 12 21  4  0  0  0
 22 18  2  0  0  0
 22 19  2  0  0  0
 31 22  1  0  0  0
 14 31  1  0  0  0
 32 14  1  0  0  0
 14 33  1  0  0  0
 33 35  2  0  0  0
 33 34  1  0  0  0
 43 32  1  0  0  0
 43 42  2  0  0  0
 39 43  1  0  0  0
 39 40  4  0  0  0
 38 39  4  0  0  0
 38 13  1  0  0  0
 38 37  4  0  0  0
 37 36  4  0  0  0
 36 41  4  0  0  0
 41 40  4  0  0  0
 13 42  1  0  0  0
 25 24  1  0  0  0
 24 16  1  0  0  0
 16 23  1  0  0  0
 16 28  1  0  0  0
 28 29  4  0  0  0
 28 27  4  0  0  0
 27 17  4  0  0  0
 17 15  4  0  0  0
 15 30  4  0  0  0
 30 29  4  0  0  0
 23 26  1  0  0  0
 14  5  1  0  0  0
 15  6  1  0  0  0
 16  7  1  0  0  0
 17 44  1  0  0  0
 21 45  1  0  0  0
 23 46  1  0  0  0
 23 47  1  0  0  0
 24 48  1  0  0  0
 24 49  1  0  0  0
 25 50  1  0  0  0
 25 51  1  0  0  0
 26 52  1  0  0  0
 26 53  1  0  0  0
 27 54  1  0  0  0
 29 55  1  0  0  0
 30 56  1  0  0  0
 31 57  1  0  0  0
 32 58  1  0  0  0
 32 59  1  0  0  0
 36 60  1  0  0  0
 37 61  1  0  0  0
 40 62  1  0  0  0
 41 63  1  0  0  0
 42 64  1  0  0  0
M  END
$$$$
