1nwl_ligand
  -I-interpret- 

 57 58  0  0  0  0  0  0  0  0999 V2000
   49.0630   34.6970   40.0850 O   0  5  0  0  0
   64.6830   31.1400   31.4810 C   0  0  0  0  0
   64.0760   30.2340   32.5470 C   0  0  0  0  0
   62.7840   30.3600   32.8530 N   0  0  0  0  0
   64.7920   29.4170   33.1020 O   0  0  0  0  0
   49.3350   33.4820   40.1650 C   0  0  0  0  0
   49.5920   32.9380   41.2570 O   0  0  0  0  0
   49.6870   32.7420   38.9110 C   0  0  0  0  0
   48.8090   31.8350   38.4190 N   0  0  0  0  0
   49.0880   31.1520   37.2990 C   0  0  0  0  0
   50.2930   31.3780   36.6360 C   0  0  0  0  0
   51.1660   32.2750   37.1210 N   0  0  0  0  0
   50.8940   32.9710   38.2530 C   0  0  0  0  0
   51.9830   33.8610   38.8560 C   0  0  0  0  0
   52.1610   33.8640   40.0630 O   0  0  0  0  0
   52.9390   34.4840   37.9610 N   0  0  0  0  0
   54.3650   34.1790   38.0290 C   0  0  0  0  0
   55.1120   35.4000   37.4790 C   0  0  0  0  0
   54.9140   35.6230   35.9770 C   0  0  0  0  0
   54.6070   32.9360   37.1670 C   0  0  0  0  0
   54.4090   33.1840   35.6690 C   0  0  0  0  0
   55.2330   34.3690   35.1610 C   0  0  0  0  0
   54.9470   34.6260   33.6830 C   0  0  0  0  0
   53.8030   34.6500   33.2500 O   0  0  0  0  0
   56.1040   34.8420   32.8380 N   0  0  0  0  0
   56.5060   33.8630   31.8480 C   0  0  0  0  0
   57.6630   33.0370   32.3930 C   0  0  0  0  0
   60.5830   32.4370   32.7560 S   0  0  0  0  0
   61.7380   30.1680   31.8640 C   0  0  0  0  0
   60.4070   30.7290   32.3560 C   0  0  0  0  0
   59.1630   33.5190   31.8580 S   0  0  0  0  0
   65.7486   30.8929   31.3654 H   0  0  0  0  0
   64.1725   30.9822   30.5196 H   0  0  0  0  0
   64.5906   32.1927   31.7864 H   0  0  0  0  0
   62.5280   30.5936   33.7910 H   0  0  0  0  0
   48.3802   30.4282   36.9115 H   0  0  0  0  0
   50.5249   30.8301   35.7299 H   0  0  0  0  0
   52.6130   35.1394   37.2797 H   0  0  0  0  0
   54.6795   33.9699   39.0621 H   0  0  0  0  0
   54.7531   36.2987   38.0020 H   0  0  0  0  0
   56.1888   35.2660   37.6594 H   0  0  0  0  0
   53.8661   35.8988   35.7880 H   0  0  0  0  0
   55.5808   36.4307   35.6409 H   0  0  0  0  0
   55.6417   32.5948   37.3187 H   0  0  0  0  0
   53.9035   32.1484   37.4745 H   0  0  0  0  0
   54.7183   32.2875   35.1117 H   0  0  0  0  0
   53.3472   33.3974   35.4767 H   0  0  0  0  0
   56.3024   34.1331   35.2642 H   0  0  0  0  0
   56.6354   35.6829   32.9399 H   0  0  0  0  0
   55.6639   33.1918   31.6235 H   0  0  0  0  0
   56.8339   34.3732   30.9303 H   0  0  0  0  0
   57.6608   33.1113   33.4904 H   0  0  0  0  0
   57.5209   31.9898   32.0877 H   0  0  0  0  0
   61.6323   29.0899   31.6733 H   0  0  0  0  0
   62.0335   30.6853   30.9393 H   0  0  0  0  0
   60.0963   30.1690   33.2503 H   0  0  0  0  0
   59.6574   30.6102   31.5599 H   0  0  0  0  0
  6  1  1  0  0  0
  3  2  1  0  0  0
  4  3  1  0  0  0
  3  5  2  0  0  0
  6  7  2  0  0  0
  8  6  1  0  0  0
  8  9  4  0  0  0
 13  8  4  0  0  0
  9 10  4  0  0  0
 11 10  4  0  0  0
 12 11  4  0  0  0
 13 12  4  0  0  0
 14 13  1  0  0  0
 14 15  2  0  0  0
 16 14  1  0  0  0
 17 16  1  0  0  0
 18 17  1  0  0  0
 20 17  1  0  0  0
 19 18  1  0  0  0
 22 19  1  0  0  0
 21 20  1  0  0  0
 22 21  1  0  0  0
 23 22  1  0  0  0
 23 24  2  0  0  0
 25 23  1  0  0  0
 26 25  1  0  0  0
 27 26  1  0  0  0
 31 27  1  0  0  0
 30 28  1  0  0  0
 28 31  1  0  0  0
 29 30  1  0  0  0
 29  4  1  0  0  0
  2 32  1  0  0  0
  2 33  1  0  0  0
  2 34  1  0  0  0
  4 35  1  0  0  0
 10 36  1  0  0  0
 11 37  1  0  0  0
 16 38  1  0  0  0
 17 39  1  0  0  0
 18 40  1  0  0  0
 18 41  1  0  0  0
 19 42  1  0  0  0
 19 43  1  0  0  0
 20 44  1  0  0  0
 20 45  1  0  0  0
 21 46  1  0  0  0
 21 47  1  0  0  0
 22 48  1  0  0  0
 25 49  1  0  0  0
 26 50  1  0  0  0
 26 51  1  0  0  0
 27 52  1  0  0  0
 27 53  1  0  0  0
 29 54  1  0  0  0
 29 55  1  0  0  0
 30 56  1  0  0  0
 30 57  1  0  0  0
M  END
$$$$
