### 
### Created by X-TOOL on Tue Oct 25 02:21:52 2005
### 

@<TRIPOS>MOLECULE
1nwl_ligand
   57    58     1     0     0
SMALL
GAST_HUCK


@<TRIPOS>ATOM
      1 O31        49.0630   34.6970   40.0850 O.co2     1 SUB1       -0.525
      2 C1         64.6830   31.1400   31.4810 C.3       1 SUB1        0.026
      3 C2         64.0760   30.2340   32.5470 C.2       1 SUB1        0.173
      4 N4         62.7840   30.3600   32.8530 N.am      1 SUB1       -0.286
      5 O3         64.7920   29.4170   33.1020 O.2       1 SUB1       -0.397
      6 C29        49.3350   33.4820   40.1650 C.2       1 SUB1        0.112
      7 O30        49.5920   32.9380   41.2570 O.co2     1 SUB1       -0.525
      8 C24        49.6870   32.7420   38.9110 C.ar      1 SUB1        0.117
      9 N25        48.8090   31.8350   38.4190 N.ar      1 SUB1       -0.270
     10 C26        49.0880   31.1520   37.2990 C.ar      1 SUB1        0.039
     11 C27        50.2930   31.3780   36.6360 C.ar      1 SUB1        0.044
     12 N28        51.1660   32.2750   37.1210 N.ar      1 SUB1       -0.253
     13 C22        50.8940   32.9710   38.2530 C.ar      1 SUB1        0.157
     14 C21        51.9830   33.8610   38.8560 C.2       1 SUB1        0.233
     15 O23        52.1610   33.8640   40.0630 O.2       1 SUB1       -0.376
     16 N20        52.9390   34.4840   37.9610 N.am      1 SUB1       -0.280
     17 C17        54.3650   34.1790   38.0290 C.3       1 SUB1        0.042
     18 C18        55.1120   35.4000   37.4790 C.3       1 SUB1       -0.028
     19 C19        54.9140   35.6230   35.9770 C.3       1 SUB1       -0.031
     20 C16        54.6070   32.9360   37.1670 C.3       1 SUB1       -0.028
     21 C15        54.4090   33.1840   35.6690 C.3       1 SUB1       -0.031
     22 C13        55.2330   34.3690   35.1610 C.3       1 SUB1        0.049
     23 C12        54.9470   34.6260   33.6830 C.2       1 SUB1        0.179
     24 O14        53.8030   34.6500   33.2500 O.2       1 SUB1       -0.397
     25 N11        56.1040   34.8420   32.8380 N.am      1 SUB1       -0.286
     26 C10        56.5060   33.8630   31.8480 C.3       1 SUB1        0.041
     27 C9         57.6630   33.0370   32.3930 C.3       1 SUB1        0.024
     28 S7         60.5830   32.4370   32.7560 S.3       1 SUB1       -0.091
     29 C5         61.7380   30.1680   31.8640 C.3       1 SUB1        0.041
     30 C6         60.4070   30.7290   32.3560 C.3       1 SUB1        0.024
     31 S8         59.1630   33.5190   31.8580 S.3       1 SUB1       -0.091
     32 H21        65.7486   30.8929   31.3654 H         1 SUB1        0.047
     33 H22        64.1725   30.9822   30.5196 H         1 SUB1        0.047
     34 H23        64.5906   32.1927   31.7864 H         1 SUB1        0.047
     35 H41        62.5280   30.5936   33.7910 H         1 SUB1        0.185
     36 H101       48.3802   30.4282   36.9115 H         1 SUB1        0.095
     37 H111       50.5249   30.8301   35.7299 H         1 SUB1        0.091
     38 H161       52.6130   35.1394   37.2797 H         1 SUB1        0.185
     39 H171       54.6795   33.9699   39.0621 H         1 SUB1        0.056
     40 H181       54.7531   36.2987   38.0020 H         1 SUB1        0.029
     41 H182       56.1888   35.2660   37.6594 H         1 SUB1        0.029
     42 H191       53.8661   35.8988   35.7880 H         1 SUB1        0.029
     43 H192       55.5808   36.4307   35.6409 H         1 SUB1        0.029
     44 H201       55.6417   32.5948   37.3187 H         1 SUB1        0.029
     45 H202       53.9035   32.1484   37.4745 H         1 SUB1        0.029
     46 H211       54.7183   32.2875   35.1117 H         1 SUB1        0.029
     47 H212       53.3472   33.3974   35.4767 H         1 SUB1        0.029
     48 H221       56.3024   34.1331   35.2642 H         1 SUB1        0.054
     49 H251       56.6354   35.6829   32.9399 H         1 SUB1        0.185
     50 H261       55.6639   33.1918   31.6235 H         1 SUB1        0.053
     51 H262       56.8339   34.3732   30.9303 H         1 SUB1        0.053
     52 H271       57.6608   33.1113   33.4904 H         1 SUB1        0.040
     53 H272       57.5209   31.9898   32.0877 H         1 SUB1        0.040
     54 H291       61.6323   29.0899   31.6733 H         1 SUB1        0.053
     55 H292       62.0335   30.6853   30.9393 H         1 SUB1        0.053
     56 H301       60.0963   30.1690   33.2503 H         1 SUB1        0.040
     57 H302       59.6574   30.6102   31.5599 H         1 SUB1        0.040
@<TRIPOS>BOND
     1    6    1 2  
     2    3    2 1  
     3    4    3 am 
     4    3    5 2  
     5    6    7 2  
     6    8    6 1  
     7    8    9 ar 
     8   13    8 ar 
     9    9   10 ar 
    10   11   10 ar 
    11   12   11 ar 
    12   13   12 ar 
    13   14   13 1  
    14   14   15 2  
    15   16   14 am 
    16   17   16 1  
    17   18   17 1  
    18   20   17 1  
    19   19   18 1  
    20   22   19 1  
    21   21   20 1  
    22   22   21 1  
    23   23   22 1  
    24   23   24 2  
    25   25   23 am 
    26   26   25 1  
    27   27   26 1  
    28   31   27 1  
    29   30   28 1  
    30   28   31 1  
    31   29   30 1  
    32   29    4 1  
    33    2   32 1  
    34    2   33 1  
    35    2   34 1  
    36    4   35 1  
    37   10   36 1  
    38   11   37 1  
    39   16   38 1  
    40   17   39 1  
    41   18   40 1  
    42   18   41 1  
    43   19   42 1  
    44   19   43 1  
    45   20   44 1  
    46   20   45 1  
    47   21   46 1  
    48   21   47 1  
    49   22   48 1  
    50   25   49 1  
    51   26   50 1  
    52   26   51 1  
    53   27   52 1  
    54   27   53 1  
    55   29   54 1  
    56   29   55 1  
    57   30   56 1  
    58   30   57 1  
@<TRIPOS>SUBSTRUCTURE
     1 SUB1        1 GROUP

