### 
### Created by X-TOOL on Mon Oct 24 21:53:10 2005
### 

@<TRIPOS>MOLECULE
1qft_ligand
   18    18     1     0     0
SMALL
GAST_HUCK


@<TRIPOS>ATOM
      1 H91        71.6494   47.9757   25.4959 H         1 SUB1        0.199
      2 H92        72.3855   47.5525   26.9060 H         1 SUB1        0.199
      3 H93        71.0197   46.7707   26.4236 H         1 SUB1        0.199
      4 H101       73.6089   46.7179   25.0512 H         1 SUB1        0.083
      5 H102       72.1184   45.8646   24.5248 H         1 SUB1        0.083
      6 H111       72.1183   44.6561   26.7465 H         1 SUB1        0.042
      7 H112       73.7147   45.4036   27.0917 H         1 SUB1        0.042
      8 H141       72.1858   42.4688   25.0479 H         1 SUB1        0.073
      9 N          71.8720   47.2080   26.1100 N.4       1 SUB1        0.220
     10 CA         72.6830   46.2330   25.3940 C.3       1 SUB1       -0.029
     11 CB         73.0430   45.0470   26.2970 C.3       1 SUB1        0.014
     12 CG         73.7210   43.9370   25.5650 C.2       1 SUB1       -0.002
     13 ND1        75.0750   43.9390   25.2840 N.2       1 SUB1       -0.325
     14 CD2        73.2220   42.8020   25.0140 C.2       1 SUB1        0.029
     15 CE1        75.3780   42.8580   24.5830 C.2       1 SUB1        0.091
     16 NE2        74.2700   42.1500   24.4040 N.pl3     1 SUB1       -0.275
     17 H151       76.3686   42.5943   24.2154 H         1 SUB1        0.120
     18 H161       74.2047   41.2584   23.8924 H         1 SUB1        0.236
@<TRIPOS>BOND
     1    9    1 1  
     2    9    2 1  
     3    9    3 1  
     4   10    4 1  
     5   10    5 1  
     6   11    6 1  
     7   11    7 1  
     8   14    8 1  
     9   10    9 1  
    10   11   10 1  
    11   12   11 1  
    12   12   14 2  
    13   12   13 1  
    14   13   15 2  
    15   15   16 1  
    16   16   14 1  
    17   15   17 1  
    18   16   18 1  
@<TRIPOS>SUBSTRUCTURE
     1 SUB1        1 GROUP

