### 
### Created by X-TOOL on Mon Oct 24 22:51:39 2005
### 

@<TRIPOS>MOLECULE
1d4k_ligand
  106   110     1     0     0
SMALL
GAST_HUCK


@<TRIPOS>ATOM
      1 H351        4.8158    2.9086   12.4802 H         1 SUB1        0.188
      2 H361        3.8017    1.1846   10.3034 H         1 SUB1        0.073
      3 H371        4.1380    3.4162    9.5861 H         1 SUB1        0.066
      4 H381        4.6717    4.2031   11.7067 H         1 SUB1        0.210
      5 H391        1.9150    3.1927    8.9636 H         1 SUB1        0.044
      6 H392        1.7208    4.5403   10.1353 H         1 SUB1        0.044
      7 H421        2.3495    0.0505   12.9012 H         1 SUB1        0.054
      8 H431       -0.7547    3.2543   10.7379 H         1 SUB1        0.054
      9 H441       -0.0726   -0.0370   13.4280 H         1 SUB1        0.054
     10 H451       -1.6313    1.5745   12.3436 H         1 SUB1        0.054
     11 H461        6.1809    2.0862   14.0374 H         1 SUB1        0.056
     12 H471        8.0375    0.2979   12.4065 H         1 SUB1        0.045
     13 H472        8.4814    1.6447   13.5091 H         1 SUB1        0.045
     14 H491        7.7325    0.6932   10.1326 H         1 SUB1        0.056
     15 H501        7.7415    3.9960   12.8470 H         1 SUB1        0.056
     16 H511        7.6843    2.2575    8.2248 H         1 SUB1        0.060
     17 H521        7.6932    5.5677   10.9486 H         1 SUB1        0.060
     18 H531        7.6614    4.7031    8.6305 H         1 SUB1        0.056
     19 H561        7.2646    0.1597   15.1328 H         1 SUB1        0.032
     20 H562        6.6651   -0.9160   13.8251 H         1 SUB1        0.032
     21 H571        4.4904    0.1635   17.0027 H         1 SUB1        0.210
     22 H581        4.3032    0.0858   14.6880 H         1 SUB1        0.065
     23 H591        5.9948   -2.1498   15.9152 H         1 SUB1        0.084
     24 H592        5.0336   -2.2631   14.4019 H         1 SUB1        0.084
     25 H601        3.1084   -2.1407   15.5655 H         1 SUB1        0.204
     26 H602        3.7885   -1.4724   16.9073 H         1 SUB1        0.204
     27 H611        4.3034   -3.3200   17.8220 H         1 SUB1        0.112
     28 H621        2.2899   -4.0926   15.7008 H         1 SUB1        0.049
     29 H622        2.0409   -3.7698   17.4503 H         1 SUB1        0.049
     30 H641        2.8196   -5.4579   19.1271 H         1 SUB1        0.053
     31 H651        3.1175   -7.8639   19.6000 H         1 SUB1        0.052
     32 H661        2.8642   -6.2716   14.9289 H         1 SUB1        0.053
     33 H671        3.1692   -8.6743   15.3915 H         1 SUB1        0.052
     34 H721        6.0311   -4.4577   18.0171 H         1 SUB1        0.189
     35 N1          4.6010    2.0260   12.0620 N.am      1 SUB1       -0.271
     36 C2          3.5320    1.9460   11.0500 C.3       1 SUB1        0.101
     37 C1          3.4530    3.3260   10.4420 C.3       1 SUB1        0.095
     38 O1          3.7690    4.3110   11.4310 O.3       1 SUB1       -0.386
     39 C9          2.0440    3.4960   10.0130 C.3       1 SUB1        0.009
     40 C3          2.1400    1.6920   11.5350 C.ar      1 SUB1       -0.013
     41 C8          1.2750    2.5870   10.9310 C.ar      1 SUB1       -0.036
     42 C4          1.6650    0.7480   12.4320 C.ar      1 SUB1       -0.065
     43 C7         -0.0800    2.5520   11.2140 C.ar      1 SUB1       -0.067
     44 C5          0.3060    0.6990   12.7280 C.ar      1 SUB1       -0.075
     45 C6         -0.5720    1.6070   12.1160 C.ar      1 SUB1       -0.075
     46 C11         6.3910    1.1670   13.4710 C.3       1 SUB1        0.061
     47 C12         7.7430    1.2920   12.7740 C.3       1 SUB1        0.001
     48 C13         7.7380    2.2400   11.6180 C.ar      1 SUB1       -0.041
     49 C18         7.7230    1.7620   10.3130 C.ar      1 SUB1       -0.060
     50 C14         7.7280    3.6130   11.8330 C.ar      1 SUB1       -0.060
     51 C17         7.6960    2.6400    9.2390 C.ar      1 SUB1       -0.069
     52 C15         7.7010    4.4990   10.7670 C.ar      1 SUB1       -0.069
     53 C16         7.6840    4.0140    9.4670 C.ar      1 SUB1       -0.069
     54 C10         5.2850    0.9460   12.4290 C.2       1 SUB1        0.183
     55 O2          5.0570   -0.1810   11.9770 O.2       1 SUB1       -0.396
     56 C19         6.4450   -0.0180   14.4210 C.3       1 SUB1       -0.000
     57 O3          5.2810    0.3390   16.5060 O.3       1 SUB1       -0.386
     58 C20         5.1870   -0.2920   15.2230 C.3       1 SUB1        0.097
     59 C21         5.0960   -1.7900   15.3930 C.3       1 SUB1       -0.005
     60 N2          3.9150   -2.1480   16.1700 N.4       1 SUB1        0.249
     61 C22         4.0580   -3.4820   16.7620 C.3       1 SUB1        0.075
     62 C23         2.7160   -4.2190   16.7070 C.3       1 SUB1        0.037
     63 C24         2.8300   -5.6920   16.9950 C.ar      1 SUB1       -0.046
     64 C25         2.8980   -6.1600   18.3050 C.ar      1 SUB1       -0.068
     65 C26         3.0650   -7.5150   18.5750 C.ar      1 SUB1       -0.040
     66 C29         2.9240   -6.6160   15.9550 C.ar      1 SUB1       -0.068
     67 C28         3.0930   -7.9700   16.2120 C.ar      1 SUB1       -0.040
     68 C27         3.1640   -8.4180   17.5240 C.ar      1 SUB1        0.084
     69 O6          3.3520   -9.7700   17.7500 O.3       1 SUB1       -0.322
     70 C30         5.1730   -4.3830   16.2000 C.2       1 SUB1        0.229
     71 O4          5.2480   -4.6210   14.9940 O.2       1 SUB1       -0.391
     72 N3          6.0830   -4.8000   17.0790 N.am      1 SUB1       -0.261
     73 C31         7.1660   -5.7450   16.7330 C.3       1 SUB1        0.133
     74 C32         8.4860   -5.0290   16.3370 C.3       1 SUB1       -0.004
     75 C33         9.1810   -5.8100   15.2170 C.3       1 SUB1       -0.058
     76 C34         8.2170   -3.5990   15.8650 C.3       1 SUB1       -0.049
     77 C35         9.3940   -2.9390   15.2290 C.3       1 SUB1       -0.065
     78 C36         7.4300   -6.5950   17.9780 C.2       1 SUB1        0.202
     79 O5          7.4000   -6.0840   19.1040 O.2       1 SUB1       -0.394
     80 N4          7.6450   -7.8940   17.7790 N.am      1 SUB1       -0.285
     81 C37         7.9150   -8.8640   18.8560 C.3       1 SUB1        0.031
     82 C38         7.6090  -10.3010   18.4460 C.3       1 SUB1       -0.033
     83 C39         6.1340  -10.5030   18.1270 C.3       1 SUB1       -0.049
     84 C40         5.2480  -10.0060   19.2570 C.3       1 SUB1       -0.025
     85 C41         3.7780  -10.3070   18.9950 C.3       1 SUB1        0.069
     86 H731        6.8398   -6.3834   15.8987 H         1 SUB1        0.080
     87 H741        9.1469   -4.9944   17.2156 H         1 SUB1        0.034
     88 H751       10.1152   -5.2999   14.9394 H         1 SUB1        0.023
     89 H752        8.5180   -5.8630   14.3409 H         1 SUB1        0.023
     90 H753        9.4089   -6.8278   15.5665 H         1 SUB1        0.023
     91 H761        7.9122   -2.9990   16.7351 H         1 SUB1        0.027
     92 H762        7.3971   -3.6250   15.1322 H         1 SUB1        0.027
     93 H771        9.1197   -1.9198   14.9191 H         1 SUB1        0.023
     94 H772        9.7075   -3.5182   14.3480 H         1 SUB1        0.023
     95 H773       10.2226   -2.8922   15.9509 H         1 SUB1        0.023
     96 H801        7.6218   -8.2334   16.8386 H         1 SUB1        0.185
     97 H811        8.9775   -8.7958   19.1324 H         1 SUB1        0.052
     98 H812        7.2926   -8.6062   19.7256 H         1 SUB1        0.052
     99 H821        8.2023  -10.5493   17.5536 H         1 SUB1        0.029
    100 H822        7.8889  -10.9726   19.2710 H         1 SUB1        0.029
    101 H831        5.8875   -9.9491   17.2091 H         1 SUB1        0.027
    102 H832        5.9457  -11.5753   17.9700 H         1 SUB1        0.027
    103 H841        5.5519  -10.5000   20.1917 H         1 SUB1        0.029
    104 H842        5.3765   -8.9183   19.3585 H         1 SUB1        0.029
    105 H851        3.6327  -11.3973   18.9829 H         1 SUB1        0.061
    106 H852        3.1733   -9.8654   19.8008 H         1 SUB1        0.061
@<TRIPOS>BOND
     1   35    1 1  
     2   36    2 1  
     3   37    3 1  
     4   38    4 1  
     5   39    5 1  
     6   39    6 1  
     7   42    7 1  
     8   43    8 1  
     9   44    9 1  
    10   45   10 1  
    11   46   11 1  
    12   47   12 1  
    13   47   13 1  
    14   49   14 1  
    15   50   15 1  
    16   51   16 1  
    17   52   17 1  
    18   53   18 1  
    19   56   19 1  
    20   56   20 1  
    21   57   21 1  
    22   58   22 1  
    23   59   23 1  
    24   59   24 1  
    25   60   25 1  
    26   60   26 1  
    27   61   27 1  
    28   62   28 1  
    29   54   35 am 
    30   35   36 1  
    31   36   40 1  
    32   36   37 1  
    33   37   39 1  
    34   37   38 1  
    35   39   41 1  
    36   41   43 ar 
    37   40   41 ar 
    38   40   42 ar 
    39   42   44 ar 
    40   44   45 ar 
    41   43   45 ar 
    42   54   55 2  
    43   46   54 1  
    44   56   46 1  
    45   46   47 1  
    46   47   48 1  
    47   48   50 ar 
    48   48   49 ar 
    49   49   51 ar 
    50   51   53 ar 
    51   52   53 ar 
    52   50   52 ar 
    53   58   56 1  
    54   58   57 1  
    55   59   58 1  
    56   60   59 1  
    57   61   60 1  
    58   61   70 1  
    59   61   62 1  
    60   62   63 1  
    61   63   66 ar 
    62   63   64 ar 
    63   64   65 ar 
    64   65   68 ar 
    65   68   69 1  
    66   68   67 ar 
    67   67   66 ar 
    68   69   85 1  
    69   85   84 1  
    70   84   83 1  
    71   83   82 1  
    72   82   81 1  
    73   81   80 1  
    74   80   78 am 
    75   78   79 2  
    76   78   73 1  
    77   73   74 1  
    78   73   72 1  
    79   72   70 am 
    80   70   71 2  
    81   74   76 1  
    82   74   75 1  
    83   76   77 1  
    84   62   29 1  
    85   64   30 1  
    86   65   31 1  
    87   66   32 1  
    88   67   33 1  
    89   72   34 1  
    90   73   86 1  
    91   74   87 1  
    92   75   88 1  
    93   75   89 1  
    94   75   90 1  
    95   76   91 1  
    96   76   92 1  
    97   77   93 1  
    98   77   94 1  
    99   77   95 1  
   100   80   96 1  
   101   81   97 1  
   102   81   98 1  
   103   82   99 1  
   104   82  100 1  
   105   83  101 1  
   106   83  102 1  
   107   84  103 1  
   108   84  104 1  
   109   85  105 1  
   110   85  106 1  
@<TRIPOS>SUBSTRUCTURE
     1 SUB1        1 GROUP

