1d4k_ligand
  -I-interpret- 

106110  0  0  0  0  0  0  0  0999 V2000
    4.8158    2.9086   12.4802 H   0  0  0  0  0
    3.8017    1.1846   10.3034 H   0  0  0  0  0
    4.1380    3.4162    9.5861 H   0  0  0  0  0
    4.6717    4.2031   11.7067 H   0  0  0  0  0
    1.9150    3.1927    8.9636 H   0  0  0  0  0
    1.7208    4.5403   10.1353 H   0  0  0  0  0
    2.3495    0.0505   12.9012 H   0  0  0  0  0
   -0.7547    3.2543   10.7379 H   0  0  0  0  0
   -0.0726   -0.0370   13.4280 H   0  0  0  0  0
   -1.6313    1.5745   12.3436 H   0  0  0  0  0
    6.1809    2.0862   14.0374 H   0  0  0  0  0
    8.0375    0.2979   12.4065 H   0  0  0  0  0
    8.4814    1.6447   13.5091 H   0  0  0  0  0
    7.7325    0.6932   10.1326 H   0  0  0  0  0
    7.7415    3.9960   12.8470 H   0  0  0  0  0
    7.6843    2.2575    8.2248 H   0  0  0  0  0
    7.6932    5.5677   10.9486 H   0  0  0  0  0
    7.6614    4.7031    8.6305 H   0  0  0  0  0
    7.2646    0.1597   15.1328 H   0  0  0  0  0
    6.6651   -0.9160   13.8251 H   0  0  0  0  0
    4.4904    0.1635   17.0027 H   0  0  0  0  0
    4.3032    0.0858   14.6880 H   0  0  0  0  0
    5.9948   -2.1498   15.9152 H   0  0  0  0  0
    5.0336   -2.2631   14.4019 H   0  0  0  0  0
    3.1084   -2.1407   15.5655 H   0  0  0  0  0
    3.7885   -1.4724   16.9073 H   0  0  0  0  0
    4.3034   -3.3200   17.8220 H   0  0  0  0  0
    2.2899   -4.0926   15.7008 H   0  0  0  0  0
    2.0409   -3.7698   17.4503 H   0  0  0  0  0
    2.8196   -5.4579   19.1271 H   0  0  0  0  0
    3.1175   -7.8639   19.6000 H   0  0  0  0  0
    2.8642   -6.2716   14.9289 H   0  0  0  0  0
    3.1692   -8.6743   15.3915 H   0  0  0  0  0
    6.0311   -4.4577   18.0171 H   0  0  0  0  0
    4.6010    2.0260   12.0620 N   0  0  0  0  0
    3.5320    1.9460   11.0500 C   0  0  0  0  0
    3.4530    3.3260   10.4420 C   0  0  0  0  0
    3.7690    4.3110   11.4310 O   0  0  0  0  0
    2.0440    3.4960   10.0130 C   0  0  0  0  0
    2.1400    1.6920   11.5350 C   0  0  0  0  0
    1.2750    2.5870   10.9310 C   0  0  0  0  0
    1.6650    0.7480   12.4320 C   0  0  0  0  0
   -0.0800    2.5520   11.2140 C   0  0  0  0  0
    0.3060    0.6990   12.7280 C   0  0  0  0  0
   -0.5720    1.6070   12.1160 C   0  0  0  0  0
    6.3910    1.1670   13.4710 C   0  0  0  0  0
    7.7430    1.2920   12.7740 C   0  0  0  0  0
    7.7380    2.2400   11.6180 C   0  0  0  0  0
    7.7230    1.7620   10.3130 C   0  0  0  0  0
    7.7280    3.6130   11.8330 C   0  0  0  0  0
    7.6960    2.6400    9.2390 C   0  0  0  0  0
    7.7010    4.4990   10.7670 C   0  0  0  0  0
    7.6840    4.0140    9.4670 C   0  0  0  0  0
    5.2850    0.9460   12.4290 C   0  0  0  0  0
    5.0570   -0.1810   11.9770 O   0  0  0  0  0
    6.4450   -0.0180   14.4210 C   0  0  0  0  0
    5.2810    0.3390   16.5060 O   0  0  0  0  0
    5.1870   -0.2920   15.2230 C   0  0  0  0  0
    5.0960   -1.7900   15.3930 C   0  0  0  0  0
    3.9150   -2.1480   16.1700 N   0  3  0  0  0
    4.0580   -3.4820   16.7620 C   0  0  0  0  0
    2.7160   -4.2190   16.7070 C   0  0  0  0  0
    2.8300   -5.6920   16.9950 C   0  0  0  0  0
    2.8980   -6.1600   18.3050 C   0  0  0  0  0
    3.0650   -7.5150   18.5750 C   0  0  0  0  0
    2.9240   -6.6160   15.9550 C   0  0  0  0  0
    3.0930   -7.9700   16.2120 C   0  0  0  0  0
    3.1640   -8.4180   17.5240 C   0  0  0  0  0
    3.3520   -9.7700   17.7500 O   0  0  0  0  0
    5.1730   -4.3830   16.2000 C   0  0  0  0  0
    5.2480   -4.6210   14.9940 O   0  0  0  0  0
    6.0830   -4.8000   17.0790 N   0  0  0  0  0
    7.1660   -5.7450   16.7330 C   0  0  0  0  0
    8.4860   -5.0290   16.3370 C   0  0  0  0  0
    9.1810   -5.8100   15.2170 C   0  0  0  0  0
    8.2170   -3.5990   15.8650 C   0  0  0  0  0
    9.3940   -2.9390   15.2290 C   0  0  0  0  0
    7.4300   -6.5950   17.9780 C   0  0  0  0  0
    7.4000   -6.0840   19.1040 O   0  0  0  0  0
    7.6450   -7.8940   17.7790 N   0  0  0  0  0
    7.9150   -8.8640   18.8560 C   0  0  0  0  0
    7.6090  -10.3010   18.4460 C   0  0  0  0  0
    6.1340  -10.5030   18.1270 C   0  0  0  0  0
    5.2480  -10.0060   19.2570 C   0  0  0  0  0
    3.7780  -10.3070   18.9950 C   0  0  0  0  0
    6.8398   -6.3834   15.8987 H   0  0  0  0  0
    9.1469   -4.9944   17.2156 H   0  0  0  0  0
   10.1152   -5.2999   14.9394 H   0  0  0  0  0
    8.5180   -5.8630   14.3409 H   0  0  0  0  0
    9.4089   -6.8278   15.5665 H   0  0  0  0  0
    7.9122   -2.9990   16.7351 H   0  0  0  0  0
    7.3971   -3.6250   15.1322 H   0  0  0  0  0
    9.1197   -1.9198   14.9191 H   0  0  0  0  0
    9.7075   -3.5182   14.3480 H   0  0  0  0  0
   10.2226   -2.8922   15.9509 H   0  0  0  0  0
    7.6218   -8.2334   16.8386 H   0  0  0  0  0
    8.9775   -8.7958   19.1324 H   0  0  0  0  0
    7.2926   -8.6062   19.7256 H   0  0  0  0  0
    8.2023  -10.5493   17.5536 H   0  0  0  0  0
    7.8889  -10.9726   19.2710 H   0  0  0  0  0
    5.8875   -9.9491   17.2091 H   0  0  0  0  0
    5.9457  -11.5753   17.9700 H   0  0  0  0  0
    5.5519  -10.5000   20.1917 H   0  0  0  0  0
    5.3765   -8.9183   19.3585 H   0  0  0  0  0
    3.6327  -11.3973   18.9829 H   0  0  0  0  0
    3.1733   -9.8654   19.8008 H   0  0  0  0  0
 35  1  1  0  0  0
 36  2  1  0  0  0
 37  3  1  0  0  0
 38  4  1  0  0  0
 39  5  1  0  0  0
 39  6  1  0  0  0
 42  7  1  0  0  0
 43  8  1  0  0  0
 44  9  1  0  0  0
 45 10  1  0  0  0
 46 11  1  0  0  0
 47 12  1  0  0  0
 47 13  1  0  0  0
 49 14  1  0  0  0
 50 15  1  0  0  0
 51 16  1  0  0  0
 52 17  1  0  0  0
 53 18  1  0  0  0
 56 19  1  0  0  0
 56 20  1  0  0  0
 57 21  1  0  0  0
 58 22  1  0  0  0
 59 23  1  0  0  0
 59 24  1  0  0  0
 60 25  1  0  0  0
 60 26  1  0  0  0
 61 27  1  0  0  0
 62 28  1  0  0  0
 54 35  1  0  0  0
 35 36  1  0  0  0
 36 40  1  0  0  0
 36 37  1  0  0  0
 37 39  1  0  0  0
 37 38  1  0  0  0
 39 41  1  0  0  0
 41 43  4  0  0  0
 40 41  4  0  0  0
 40 42  4  0  0  0
 42 44  4  0  0  0
 44 45  4  0  0  0
 43 45  4  0  0  0
 54 55  2  0  0  0
 46 54  1  0  0  0
 56 46  1  0  0  0
 46 47  1  0  0  0
 47 48  1  0  0  0
 48 50  4  0  0  0
 48 49  4  0  0  0
 49 51  4  0  0  0
 51 53  4  0  0  0
 52 53  4  0  0  0
 50 52  4  0  0  0
 58 56  1  0  0  0
 58 57  1  0  0  0
 59 58  1  0  0  0
 60 59  1  0  0  0
 61 60  1  0  0  0
 61 70  1  0  0  0
 61 62  1  0  0  0
 62 63  1  0  0  0
 63 66  4  0  0  0
 63 64  4  0  0  0
 64 65  4  0  0  0
 65 68  4  0  0  0
 68 69  1  0  0  0
 68 67  4  0  0  0
 67 66  4  0  0  0
 69 85  1  0  0  0
 85 84  1  0  0  0
 84 83  1  0  0  0
 83 82  1  0  0  0
 82 81  1  0  0  0
 81 80  1  0  0  0
 80 78  1  0  0  0
 78 79  2  0  0  0
 78 73  1  0  0  0
 73 74  1  0  0  0
 73 72  1  0  0  0
 72 70  1  0  0  0
 70 71  2  0  0  0
 74 76  1  0  0  0
 74 75  1  0  0  0
 76 77  1  0  0  0
 62 29  1  0  0  0
 64 30  1  0  0  0
 65 31  1  0  0  0
 66 32  1  0  0  0
 67 33  1  0  0  0
 72 34  1  0  0  0
 73 86  1  0  0  0
 74 87  1  0  0  0
 75 88  1  0  0  0
 75 89  1  0  0  0
 75 90  1  0  0  0
 76 91  1  0  0  0
 76 92  1  0  0  0
 77 93  1  0  0  0
 77 94  1  0  0  0
 77 95  1  0  0  0
 80 96  1  0  0  0
 81 97  1  0  0  0
 81 98  1  0  0  0
 82 99  1  0  0  0
 82100  1  0  0  0
 83101  1  0  0  0
 83102  1  0  0  0
 84103  1  0  0  0
 84104  1  0  0  0
 85105  1  0  0  0
 85106  1  0  0  0
M  END
$$$$
