### 
### Created by X-TOOL on Tue Oct 25 01:27:16 2005
### 

@<TRIPOS>MOLECULE
1efy_ligand
   33    35     1     0     0
SMALL
GAST_HUCK


@<TRIPOS>ATOM
      1 C1         40.6790   22.6620   21.8370 C.ar      1 SUB1        0.052
      2 N2         39.9280   22.8690   20.7290 N.2       1 SUB1       -0.300
      3 C3         38.6530   22.4260   20.9470 C.2       1 SUB1        0.140
      4 N4         38.6030   21.9240   22.2360 N.pl3     1 SUB1       -0.248
      5 C5         39.8310   22.0570   22.8020 C.ar      1 SUB1        0.088
      6 C7         40.3600   21.7320   24.0480 C.ar      1 SUB1       -0.034
      7 C4         42.0330   22.9360   22.1260 C.ar      1 SUB1        0.050
      8 C19        37.5710   22.5070   19.8910 C.ar      1 SUB1        0.026
      9 C2         42.5490   22.5980   23.3900 C.ar      1 SUB1       -0.056
     10 C6         41.7080   22.0010   24.3360 C.ar      1 SUB1       -0.068
     11 C8         42.8860   23.5850   21.1520 C.2       1 SUB1        0.196
     12 N1         42.4080   23.9600   19.9530 N.am      1 SUB1       -0.301
     13 O1         44.0640   23.8070   21.4100 O.2       1 SUB1       -0.389
     14 C11        37.9370   22.5990   18.5340 C.ar      1 SUB1       -0.016
     15 C12        36.2060   22.5290   20.2400 C.ar      1 SUB1       -0.055
     16 C13        36.9460   22.7190   17.5480 C.ar      1 SUB1        0.096
     17 O2         37.2660   22.7800   16.1600 O.3       1 SUB1       -0.320
     18 C15        35.5880   22.7470   17.9180 C.ar      1 SUB1       -0.029
     19 C17        35.2060   22.6510   19.2600 C.ar      1 SUB1       -0.065
     20 C18        38.5440   22.3580   15.7040 C.3       1 SUB1        0.059
     21 H41        37.7730   21.5173   22.6905 H         1 SUB1        0.231
     22 H61        39.7292   21.2697   24.7986 H         1 SUB1        0.059
     23 H91        43.5873   22.7978   23.6290 H         1 SUB1        0.058
     24 H101       42.1050   21.7410   25.3106 H         1 SUB1        0.056
     25 H121       43.0107   24.4070   19.2920 H         1 SUB1        0.181
     26 H122       41.4497   23.7919   19.7220 H         1 SUB1        0.181
     27 H141       38.9834   22.5771   18.2517 H         1 SUB1        0.058
     28 H151       35.9221   22.4504   21.2832 H         1 SUB1        0.057
     29 H181       34.8275   22.8444   17.1517 H         1 SUB1        0.058
     30 H191       34.1587   22.6703   19.5389 H         1 SUB1        0.060
     31 H201       38.6021   22.4790   14.6122 H         1 SUB1        0.058
     32 H202       38.6952   21.3000   15.9642 H         1 SUB1        0.058
     33 H203       39.3240   22.9684   16.1825 H         1 SUB1        0.058
@<TRIPOS>BOND
     1    1    7 ar 
     2    1    5 ar 
     3    1    2 1  
     4    2    3 2  
     5    3    8 1  
     6    3    4 1  
     7    4    5 1  
     8    5    6 ar 
     9    6   10 ar 
    10   10    9 ar 
    11    9    7 ar 
    12    7   11 1  
    13   11   13 2  
    14   11   12 am 
    15    8   15 ar 
    16    8   14 ar 
    17   14   16 ar 
    18   16   18 ar 
    19   16   17 1  
    20   17   20 1  
    21   18   19 ar 
    22   19   15 ar 
    23    4   21 1  
    24    6   22 1  
    25    9   23 1  
    26   10   24 1  
    27   12   25 1  
    28   12   26 1  
    29   14   27 1  
    30   15   28 1  
    31   18   29 1  
    32   19   30 1  
    33   20   31 1  
    34   20   32 1  
    35   20   33 1  
@<TRIPOS>SUBSTRUCTURE
     1 SUB1        1 GROUP

