1f5l_ligand
  -I-interpret- 

 24 24  0  0  0  0  0  0  0  0999 V2000
   32.9889    6.1224   27.8142 H   0  0  0  0  0
   33.3514    2.1718   28.4049 H   0  0  0  0  0
   31.8028    2.9549   28.8188 H   0  0  0  0  0
   34.8612    5.1435   27.3272 H   0  0  0  0  0
   35.0440    3.3864   27.5765 H   0  0  0  0  0
   27.6628    6.3308   30.2293 H   0  0  0  0  0
   28.9808    5.1547   29.9793 H   0  0  0  0  0
   29.1091   11.1710   27.3254 H   0  0  0  0  0
   27.7543   10.6100   28.3417 H   0  0  0  0  0
   31.1120    7.6690   27.6830 N   0  0  0  0  0
   30.5020    6.7410   28.4320 C   0  0  0  0  0
   31.2400    5.3550   28.6010 C   0  0  0  0  0
   32.5550    5.2790   28.1310 N   0  0  0  0  0
   33.2510    4.1770   28.0800 C   0  3  0  0  0
   32.7670    3.0180   28.4620 N   0  0  0  0  0
   34.4700    4.2400   27.6300 N   0  0  0  0  0
   30.6520    4.3960   29.1150 O   0  0  0  0  0
   29.2610    7.0260   29.0190 C   0  0  0  0  0
   28.5730    6.0860   29.8140 N   0  0  0  0  0
   28.6930    8.2380   28.8250 N   0  0  0  0  0
   29.3140    9.1790   28.0650 C   0  0  0  0  0
   28.6660   10.4360   27.8950 N   0  0  0  0  0
   30.5610    8.8800   27.4780 C   0  0  0  0  0
   31.4320   10.0160   26.4870 Cl  0  0  0  0  0
 13  1  1  0  0  0
 15  2  1  0  0  0
 15  3  1  0  0  0
 16  4  1  0  0  0
 16  5  1  0  0  0
 19  6  1  0  0  0
 19  7  1  0  0  0
 22  8  1  0  0  0
 23 10  4  0  0  0
 10 11  4  0  0  0
 18 11  4  0  0  0
 11 12  1  0  0  0
 12 17  2  0  0  0
 12 13  1  0  0  0
 13 14  1  0  0  0
 14 16  1  0  0  0
 14 15  1  0  0  0
 20 18  4  0  0  0
 18 19  1  0  0  0
 21 20  4  0  0  0
 21 23  4  0  0  0
 21 22  1  0  0  0
 23 24  1  0  0  0
 22  9  1  0  0  0
M  END
$$$$
