### 
### Created by X-TOOL on Tue Oct 25 00:57:46 2005
### 

@<TRIPOS>MOLECULE
1f5l_ligand
   24    24     1     0     0
SMALL
GAST_HUCK


@<TRIPOS>ATOM
      1 H131       32.9889    6.1224   27.8142 H         1 SUB1        0.245
      2 H151       33.3514    2.1718   28.4049 H         1 SUB1        0.195
      3 H152       31.8028    2.9549   28.8188 H         1 SUB1        0.195
      4 H161       34.8612    5.1435   27.3272 H         1 SUB1        0.195
      5 H162       35.0440    3.3864   27.5765 H         1 SUB1        0.195
      6 H191       27.6628    6.3308   30.2293 H         1 SUB1        0.180
      7 H192       28.9808    5.1547   29.9793 H         1 SUB1        0.180
      8 H221       29.1091   11.1710   27.3254 H         1 SUB1        0.180
      9 H222       27.7543   10.6100   28.3417 H         1 SUB1        0.180
     10 N1         31.1120    7.6690   27.6830 N.ar      1 SUB1       -0.266
     11 C1         30.5020    6.7410   28.4320 C.ar      1 SUB1        0.154
     12 C3         31.2400    5.3550   28.6010 C.2       1 SUB1        0.256
     13 N5         32.5550    5.2790   28.1310 N.am      1 SUB1       -0.075
     14 C6         33.2510    4.1770   28.0800 C.cat     1 SUB1        0.414
     15 N7         32.7670    3.0180   28.4620 N.pl3     1 SUB1       -0.179
     16 N6         34.4700    4.2400   27.6300 N.pl3     1 SUB1       -0.179
     17 O1         30.6520    4.3960   29.1150 O.2       1 SUB1       -0.386
     18 C2         29.2610    7.0260   29.0190 C.ar      1 SUB1        0.140
     19 N4         28.5730    6.0860   29.8140 N.pl3     1 SUB1       -0.316
     20 N3         28.6930    8.2380   28.8250 N.ar      1 SUB1       -0.245
     21 C4         29.3140    9.1790   28.0650 C.ar      1 SUB1        0.146
     22 N2         28.6660   10.4360   27.8950 N.pl3     1 SUB1       -0.316
     23 C5         30.5610    8.8800   27.4780 C.ar      1 SUB1        0.156
     24 CL1        31.4320   10.0160   26.4870 Cl        1 SUB1       -0.049
@<TRIPOS>BOND
     1   13    1 1  
     2   15    2 1  
     3   15    3 1  
     4   16    4 1  
     5   16    5 1  
     6   19    6 1  
     7   19    7 1  
     8   22    8 1  
     9   23   10 ar 
    10   10   11 ar 
    11   18   11 ar 
    12   11   12 1  
    13   12   17 2  
    14   12   13 am 
    15   13   14 1  
    16   14   16 1  
    17   14   15 1  
    18   20   18 ar 
    19   18   19 1  
    20   21   20 ar 
    21   21   23 ar 
    22   21   22 1  
    23   23   24 1  
    24   22    9 1  
@<TRIPOS>SUBSTRUCTURE
     1 SUB1        1 GROUP

