### 
### Created by X-TOOL on Mon Oct 24 23:59:28 2005
### 

@<TRIPOS>MOLECULE
1jyq_ligand
   85    87     1     0     0
SMALL
GAST_HUCK


@<TRIPOS>ATOM
      1 C1        -28.8520   37.7930   35.6640 C.ar      1 SUB1       -0.080
      2 C2        -29.6420   38.9260   35.3150 C.ar      1 SUB1       -0.071
      3 C3        -29.6710   39.3420   33.9720 C.ar      1 SUB1       -0.025
      4 C4        -28.9230   38.6720   32.9890 C.ar      1 SUB1       -0.041
      5 C6        -28.0920   37.1200   34.6670 C.ar      1 SUB1       -0.052
      6 C12       -30.4900   40.4930   33.5150 C.3       1 SUB1        0.108
      7 O13       -29.9610   41.8270   33.4510 O.3       1 SUB1       -0.251
      8 C16       -28.7740   42.2610   33.7710 C.2       1 SUB1        0.324
      9 O18       -28.0030   41.7300   34.7790 O.2       1 SUB1       -0.377
     10 N11       -27.4060   36.9560   32.3710 N.pl3     1 SUB1       -0.338
     11 C5        -28.1300   37.5700   33.3340 C.ar      1 SUB1        0.028
     12 N         -28.6340   43.5240   33.4430 N.am      1 SUB1       -0.240
     13 CA        -27.4480   44.2920   33.4820 C.3       1 SUB1        0.140
     14 C         -27.9920   45.6800   33.4050 C.2       1 SUB1        0.203
     15 O         -28.9380   46.0270   32.6490 O.2       1 SUB1       -0.394
     16 CB        -26.5470   44.0820   32.2300 C.3       1 SUB1       -0.000
     17 CG        -25.8710   42.7140   32.2280 C.ar      1 SUB1       -0.145
     18 CD1       -26.4600   41.6680   31.4710 C.ar      1 SUB1       -0.179
     19 CD2       -24.6950   42.4720   32.9840 C.ar      1 SUB1       -0.179
     20 CE1       -25.8960   40.4040   31.4610 C.ar      1 SUB1       -0.140
     21 CE2       -24.0880   41.1920   32.9840 C.ar      1 SUB1       -0.140
     22 CZ        -24.7360   40.1860   32.2050 C.ar      1 SUB1        0.074
     23 OH        -24.1760   38.8990   32.1760 O.3       1 SUB1       -0.110
     24 P         -23.4880   38.1660   33.3190 P.3       1 SUB1        0.476
     25 O1P       -23.9910   36.8140   33.2960 O.co2     1 SUB1       -0.376
     26 O2P       -23.7460   38.7540   34.6230 O.co2     1 SUB1       -0.376
     27 O3P       -21.9630   38.1250   33.0320 O.co2     1 SUB1       -0.376
     28 N         -27.4480   46.4150   34.3280 N.am      1 SUB1       -0.273
     29 CA        -27.8180   47.7830   34.5170 C.3       1 SUB1        0.137
     30 CH3       -29.0700   47.8930   35.4290 C.3       1 SUB1       -0.030
     31 C         -27.7360   48.6120   33.2100 C.2       1 SUB1        0.229
     32 O         -28.5820   49.4940   32.9640 O.2       1 SUB1       -0.342
     33 CB        -26.6710   48.3040   35.4550 C.3       1 SUB1       -0.008
     34 CG        -26.8940   49.6920   36.0670 C.ar      1 SUB1       -0.148
     35 CD1       -27.3950   49.8120   37.3880 C.ar      1 SUB1       -0.179
     36 CD2       -26.6180   50.8380   35.3130 C.ar      1 SUB1       -0.179
     37 CE1       -27.6060   51.0850   37.9200 C.ar      1 SUB1       -0.140
     38 CE2       -26.8210   52.1460   35.8300 C.ar      1 SUB1       -0.140
     39 CZ        -27.3140   52.2200   37.1390 C.ar      1 SUB1        0.074
     40 OH        -27.5100   53.5160   37.6550 O.3       1 SUB1       -0.110
     41 P         -28.2860   54.6800   36.7660 P.3       1 SUB1        0.476
     42 O1P       -28.4530   55.8160   37.6910 O.co2     1 SUB1       -0.376
     43 O2P       -29.5550   54.1220   36.2400 O.co2     1 SUB1       -0.376
     44 O3P       -27.4420   55.0860   35.6060 O.co2     1 SUB1       -0.376
     45 N         -26.7850   48.3170   32.3440 N.am      1 SUB1       -0.265
     46 CA        -26.7030   49.0630   31.1070 C.3       1 SUB1        0.098
     47 C         -27.2720   48.2090   29.9730 C.2       1 SUB1        0.056
     48 O         -28.1160   47.2850   30.1990 O.co2     1 SUB1       -0.564
     49 CB        -25.2350   49.4440   30.7670 C.3       1 SUB1        0.072
     50 CG        -24.2930   48.1900   30.6050 C.2       1 SUB1        0.179
     51 OD1       -24.5070   47.1770   31.2010 O.2       1 SUB1       -0.397
     52 ND2       -23.2600   48.3260   29.8210 N.am      1 SUB1       -0.301
     53 OXT       -26.8840   48.4730   28.8370 O.co2     1 SUB1       -0.564
     54 H451      -26.1297   47.5875   32.5401 H         1 SUB1        0.191
     55 H461      -27.2969   49.9837   31.2054 H         1 SUB1        0.080
     56 H491      -24.8407   50.0759   31.5764 H         1 SUB1        0.056
     57 H492      -25.2295   50.0103   29.8240 H         1 SUB1        0.056
     58 H521      -23.0962   49.1961   29.3562 H         1 SUB1        0.181
     59 H522      -22.6316   47.5602   29.6846 H         1 SUB1        0.181
     60 H11       -28.8299   37.4434   36.6898 H         1 SUB1        0.057
     61 H21       -30.2099   39.4572   36.0702 H         1 SUB1        0.045
     62 H41       -28.9598   39.0093   31.9595 H         1 SUB1        0.045
     63 H51       -27.4849   36.2624   34.9336 H         1 SUB1        0.046
     64 H61       -31.3591   40.5386   34.1877 H         1 SUB1        0.077
     65 H62       -30.8266   40.2464   32.4972 H         1 SUB1        0.077
     66 H101      -27.4452   37.2981   31.4003 H         1 SUB1        0.172
     67 H102      -26.8153   36.1462   32.6082 H         1 SUB1        0.172
     68 H121      -29.4585   43.9958   33.1306 H         1 SUB1        0.190
     69 H131      -26.8761   44.1079   34.4034 H         1 SUB1        0.082
     70 H161      -25.7702   44.8607   32.2181 H         1 SUB1        0.044
     71 H162      -27.1691   44.1708   31.3272 H         1 SUB1        0.044
     72 H181      -27.3586   41.8605   30.8961 H         1 SUB1       -0.021
     73 H191      -24.2569   43.2740   33.5670 H         1 SUB1       -0.021
     74 H201      -26.3456   39.6013   30.8878 H         1 SUB1       -0.018
     75 H211      -23.1825   40.9878   33.5439 H         1 SUB1       -0.018
     76 H281      -26.7515   46.0129   34.9224 H         1 SUB1        0.184
     77 H301      -29.3360   48.9522   35.5603 H         1 SUB1        0.024
     78 H302      -28.8498   47.4460   36.4096 H         1 SUB1        0.024
     79 H303      -29.9111   47.3588   34.9631 H         1 SUB1        0.024
     80 H331      -25.7423   48.3390   34.8665 H         1 SUB1        0.041
     81 H332      -26.5556   47.5853   36.2797 H         1 SUB1        0.041
     82 H351      -27.6111   48.9276   37.9764 H         1 SUB1       -0.021
     83 H361      -26.2379   50.7246   34.3042 H         1 SUB1       -0.021
     84 H371      -27.9917   51.1992   38.9266 H         1 SUB1       -0.018
     85 H381      -26.6070   53.0338   35.2460 H         1 SUB1       -0.018
@<TRIPOS>BOND
     1    1    5 ar 
     2    2    1 ar 
     3    3    2 ar 
     4    6    3 1  
     5    3    4 ar 
     6    4   11 ar 
     7   11   10 1  
     8   11    5 ar 
     9    7    6 1  
    10    8    7 1  
    11    8    9 2  
    12   13   12 1  
    13   13   16 1  
    14   14   13 1  
    15   14   15 2  
    16   16   17 1  
    17   17   19 ar 
    18   17   18 ar 
    19   18   20 ar 
    20   20   22 ar 
    21   22   23 1  
    22   21   22 ar 
    23   19   21 ar 
    24   23   24 1  
    25   24   27 2  
    26   24   26 2  
    27   24   25 2  
    28   29   28 1  
    29   29   33 1  
    30   31   29 1  
    31   29   30 1  
    32   31   32 2  
    33   33   34 1  
    34   34   36 ar 
    35   34   35 ar 
    36   35   37 ar 
    37   37   39 ar 
    38   39   40 1  
    39   38   39 ar 
    40   36   38 ar 
    41   40   41 1  
    42   41   44 2  
    43   41   43 2  
    44   41   42 2  
    45   46   47 1  
    46   46   49 1  
    47   45   46 1  
    48   49   50 1  
    49   50   51 2  
    50   50   52 am 
    51   47   53 2  
    52   47   48 2  
    53   28   14 am 
    54   12    8 am 
    55   31   45 am 
    56   45   54 1  
    57   46   55 1  
    58   49   56 1  
    59   49   57 1  
    60   52   58 1  
    61   52   59 1  
    62    1   60 1  
    63    2   61 1  
    64    4   62 1  
    65    5   63 1  
    66    6   64 1  
    67    6   65 1  
    68   10   66 1  
    69   10   67 1  
    70   12   68 1  
    71   13   69 1  
    72   16   70 1  
    73   16   71 1  
    74   18   72 1  
    75   19   73 1  
    76   20   74 1  
    77   21   75 1  
    78   28   76 1  
    79   30   77 1  
    80   30   78 1  
    81   30   79 1  
    82   33   80 1  
    83   33   81 1  
    84   35   82 1  
    85   36   83 1  
    86   37   84 1  
    87   38   85 1  
@<TRIPOS>SUBSTRUCTURE
     1 SUB1        1 GROUP

