2fwp_ligand
  -I-interpret- 

 18 17  0  0  0  0  0  0  0  0999 V2000
   34.7920   65.6470 -149.0640 C   0  0  0  0  0
   34.0920   66.5850 -149.5070 O   0  5  0  0  0
   34.7590   65.2790 -147.8690 O   0  0  0  0  0
   35.7050   64.9020 -150.0250 C   0  0  0  0  0
   36.2340   65.7960 -151.1560 C   0  0  0  0  0
   35.1300   66.3790 -151.8590 O   0  0  0  0  0
   37.0720   64.9520 -152.1230 C   0  0  0  0  0
   36.2170   64.1020 -153.0530 C   0  0  0  0  0
   36.1480   64.4290 -154.2550 O   0  0  0  0  0
   35.6100   63.1170 -152.5840 O   0  5  0  0  0
   37.0990   66.9190 -150.5950 C   0  0  0  0  0
   38.0890   66.6060 -149.9060 O   0  0  0  0  0
   36.7770   68.0980 -150.8600 O   0  5  0  0  0
   35.1270   64.0967 -150.4783 H   0  0  0  0  0
   36.5620   64.5387 -149.4578 H   0  0  0  0  0
   34.6075   66.9067 -151.2507 H   0  0  0  0  0
   37.6916   64.2795 -151.5298 H   0  0  0  0  0
   37.6604   65.6329 -152.7381 H   0  0  0  0  0
  1  2  1  0  0  0
  1  3  2  0  0  0
  1  4  1  0  0  0
  4  5  1  0  0  0
  5  6  1  0  0  0
  5  7  1  0  0  0
  5 11  1  0  0  0
  7  8  1  0  0  0
  8  9  2  0  0  0
  8 10  1  0  0  0
 11 12  2  0  0  0
 11 13  1  0  0  0
  4 14  1  0  0  0
  4 15  1  0  0  0
  6 16  1  0  0  0
  7 17  1  0  0  0
  7 18  1  0  0  0
M  END
$$$$
