### 
### Created by X-TOOL on Sun Jun  3 12:23:21 2007
### 

@<TRIPOS>MOLECULE
2fwp_ligand
   18    17     1     0     0
SMALL
GAST_HUCK


@<TRIPOS>ATOM
      1 C1         34.7920   65.6470 -149.0640 C.2       1 SUB1        0.348
      2 O1         34.0920   66.5850 -149.5070 O.2       1 SUB1       -0.262
      3 O2         34.7590   65.2790 -147.8690 O.2       1 SUB1       -0.262
      4 C2         35.7050   64.9020 -150.0250 C.3       1 SUB1        0.101
      5 C3         36.2340   65.7960 -151.1560 C.3       1 SUB1        0.204
      6 O7         35.1300   66.3790 -151.8590 O.3       1 SUB1       -0.377
      7 C4         37.0720   64.9520 -152.1230 C.3       1 SUB1        0.101
      8 C5         36.2170   64.1020 -153.0530 C.2       1 SUB1        0.348
      9 O3         36.1480   64.4290 -154.2550 O.2       1 SUB1       -0.262
     10 O4         35.6100   63.1170 -152.5840 O.2       1 SUB1       -0.262
     11 C6         37.0990   66.9190 -150.5950 C.2       1 SUB1        0.393
     12 O5         38.0890   66.6060 -149.9060 O.2       1 SUB1       -0.241
     13 O6         36.7770   68.0980 -150.8600 O.2       1 SUB1       -0.241
     14 H          35.1270   64.0967 -150.4783 H         1 SUB1        0.051
     15 H          36.5620   64.5387 -149.4578 H         1 SUB1        0.051
     16 H          34.6075   66.9067 -151.2507 H         1 SUB1        0.209
     17 H          37.6916   64.2795 -151.5298 H         1 SUB1        0.051
     18 H          37.6604   65.6329 -152.7381 H         1 SUB1        0.051
@<TRIPOS>BOND
     1    1    2 2  
     2    1    3 2  
     3    1    4 1  
     4    4    5 1  
     5    5    6 1  
     6    5    7 1  
     7    5   11 1  
     8    7    8 1  
     9    8    9 2  
    10    8   10 2  
    11   11   12 2  
    12   11   13 2  
    13    4   14 1  
    14    4   15 1  
    15    6   16 1  
    16    7   17 1  
    17    7   18 1  
@<TRIPOS>SUBSTRUCTURE
     1 SUB1        1 GROUP

