### 
### Created by X-TOOL on Tue Oct 25 02:07:04 2005
### 

@<TRIPOS>MOLECULE
1a4k_ligand
   53    56     1     0     0
SMALL
GAST_HUCK


@<TRIPOS>ATOM
      1 H51        14.8797    6.8580   -3.0876 H         1 SUB1        0.047
      2 H52        16.5082    7.5156   -2.7107 H         1 SUB1        0.047
      3 H53        15.1570    7.7425   -1.5490 H         1 SUB1        0.047
      4 H81        16.7740    4.7058   -0.1809 H         1 SUB1        0.221
      5 C22        15.6040    7.0570   -2.2840 C.3       1 SUB1        0.031
      6 C1         15.9760    5.7400   -1.5940 C.2       1 SUB1        0.197
      7 O3         15.4720    4.6940   -1.9840 O.2       1 SUB1       -0.387
      8 N1         16.8250    5.6200   -0.5830 N.am      1 SUB1       -0.242
      9 C2         17.8010    6.4300    0.1030 C.ar      1 SUB1        0.054
     10 C7         17.4160    7.6830    0.6260 C.ar      1 SUB1       -0.051
     11 C6         18.3390    8.4880    1.2940 C.ar      1 SUB1       -0.048
     12 C5         19.6990    8.0850    1.4790 C.ar      1 SUB1        0.081
     13 C4         20.0900    6.8050    0.9420 C.ar      1 SUB1       -0.048
     14 C3         19.1510    5.9910    0.2640 C.ar      1 SUB1       -0.051
     15 N5         20.6510    9.0020    2.2090 N.am      1 SUB1       -0.141
     16 C11        20.3460    9.7660    3.3110 C.2       1 SUB1        0.234
     17 C10        21.5050   10.6030    3.7940 C.3       1 SUB1        0.084
     18 C9         22.6620   10.2210    2.8080 C.3       1 SUB1        0.105
     19 C8         21.9530    9.2230    1.8830 C.2       1 SUB1        0.236
     20 O11        19.2670    9.8250    3.8880 O.2       1 SUB1       -0.377
     21 O8         22.5660    8.7090    0.9450 O.2       1 SUB1       -0.377
     22 C12        21.3110   12.2290    3.7910 C.3       1 SUB1       -0.018
     23 C17        21.0230   12.7550    2.2910 C.3       1 SUB1       -0.045
     24 C16        22.2250   12.3000    1.3290 C.3       1 SUB1       -0.024
     25 C14        23.7240   12.4530    3.4150 C.3       1 SUB1       -0.024
     26 C13        22.6700   12.8440    4.2460 C.3       1 SUB1       -0.045
     27 C15        23.3440   11.4890    2.1610 C.3       1 SUB1        0.078
     28 N15        24.4370   10.9940    1.2860 N.am      1 SUB1       -0.254
     29 C18        25.7120   10.8320    1.5630 C.2       1 SUB1        0.324
     30 O18        26.2400   11.0850    2.6430 O.2       1 SUB1       -0.377
     31 O19        26.3270   10.3200    0.4320 O.3       1 SUB1       -0.247
     32 C19        27.7520   10.0260    0.4470 C.3       1 SUB1        0.117
     33 C20        28.2080    9.2280   -0.7690 C.2       1 SUB1        0.058
     34 O20        29.1480    8.4040   -0.6340 O.co2     1 SUB1       -0.564
     35 O21        27.6260    9.4150   -1.8690 O.co2     1 SUB1       -0.564
     36 H101       16.3936    8.0231    0.5075 H         1 SUB1        0.047
     37 H111       18.0163    9.4465    1.6841 H         1 SUB1        0.049
     38 H131       21.1121    6.4631    1.0586 H         1 SUB1        0.049
     39 H141       19.4575    5.0307   -0.1346 H         1 SUB1        0.047
     40 H171       21.7579   10.2988    4.8204 H         1 SUB1        0.058
     41 H181       23.4539    9.6875    3.3541 H         1 SUB1        0.060
     42 H221       20.4943   12.5234    4.4665 H         1 SUB1        0.033
     43 H231       20.0780   12.3260    1.9264 H         1 SUB1        0.027
     44 H232       20.9503   13.8526    2.2942 H         1 SUB1        0.027
     45 H241       21.8262   11.6528    0.5340 H         1 SUB1        0.029
     46 H242       22.6852   13.1921    0.8792 H         1 SUB1        0.029
     47 H251       24.1835   13.3654    3.0072 H         1 SUB1        0.029
     48 H252       24.4581   11.9188    4.0361 H         1 SUB1        0.029
     49 H261       22.8846   12.5119    5.2725 H         1 SUB1        0.027
     50 H262       22.5887   13.9408    4.2249 H         1 SUB1        0.027
     51 H281       24.1650   10.7495    0.3553 H         1 SUB1        0.188
     52 H321       27.9807    9.4457    1.3530 H         1 SUB1        0.083
     53 H322       28.3058   10.9761    0.4706 H         1 SUB1        0.083
@<TRIPOS>BOND
     1    5    6 1  
     2    6    8 am 
     3    6    7 2  
     4    8    9 1  
     5    9   14 ar 
     6    9   10 ar 
     7   10   11 ar 
     8   11   12 ar 
     9   12   15 1  
    10   12   13 ar 
    11   13   14 ar 
    12   15   19 am 
    13   15   16 am 
    14   16   20 2  
    15   16   17 1  
    16   17   22 1  
    17   17   18 1  
    18   18   27 1  
    19   18   19 1  
    20   19   21 2  
    21   27   25 1  
    22   27   28 1  
    23   27   24 1  
    24   24   23 1  
    25   23   22 1  
    26   22   26 1  
    27   26   25 1  
    28   28   29 am 
    29   29   31 1  
    30   29   30 2  
    31   31   32 1  
    32   32   33 1  
    33   33   35 2  
    34   33   34 2  
    35    5    1 1  
    36    5    2 1  
    37    5    3 1  
    38    8    4 1  
    39   10   36 1  
    40   11   37 1  
    41   13   38 1  
    42   14   39 1  
    43   17   40 1  
    44   18   41 1  
    45   22   42 1  
    46   23   43 1  
    47   23   44 1  
    48   24   45 1  
    49   24   46 1  
    50   25   47 1  
    51   25   48 1  
    52   26   49 1  
    53   26   50 1  
    54   28   51 1  
    55   32   52 1  
    56   32   53 1  
@<TRIPOS>SUBSTRUCTURE
     1 SUB1        1 GROUP

