1a4k_ligand
  -I-interpret- 

 53 56  0  0  0  0  0  0  0  0999 V2000
   14.8797    6.8580   -3.0876 H   0  0  0  0  0
   16.5082    7.5156   -2.7107 H   0  0  0  0  0
   15.1570    7.7425   -1.5490 H   0  0  0  0  0
   16.7740    4.7058   -0.1809 H   0  0  0  0  0
   15.6040    7.0570   -2.2840 C   0  0  0  0  0
   15.9760    5.7400   -1.5940 C   0  0  0  0  0
   15.4720    4.6940   -1.9840 O   0  0  0  0  0
   16.8250    5.6200   -0.5830 N   0  0  0  0  0
   17.8010    6.4300    0.1030 C   0  0  0  0  0
   17.4160    7.6830    0.6260 C   0  0  0  0  0
   18.3390    8.4880    1.2940 C   0  0  0  0  0
   19.6990    8.0850    1.4790 C   0  0  0  0  0
   20.0900    6.8050    0.9420 C   0  0  0  0  0
   19.1510    5.9910    0.2640 C   0  0  0  0  0
   20.6510    9.0020    2.2090 N   0  0  0  0  0
   20.3460    9.7660    3.3110 C   0  0  0  0  0
   21.5050   10.6030    3.7940 C   0  0  0  0  0
   22.6620   10.2210    2.8080 C   0  0  0  0  0
   21.9530    9.2230    1.8830 C   0  0  0  0  0
   19.2670    9.8250    3.8880 O   0  0  0  0  0
   22.5660    8.7090    0.9450 O   0  0  0  0  0
   21.3110   12.2290    3.7910 C   0  0  0  0  0
   21.0230   12.7550    2.2910 C   0  0  0  0  0
   22.2250   12.3000    1.3290 C   0  0  0  0  0
   23.7240   12.4530    3.4150 C   0  0  0  0  0
   22.6700   12.8440    4.2460 C   0  0  0  0  0
   23.3440   11.4890    2.1610 C   0  0  0  0  0
   24.4370   10.9940    1.2860 N   0  0  0  0  0
   25.7120   10.8320    1.5630 C   0  0  0  0  0
   26.2400   11.0850    2.6430 O   0  0  0  0  0
   26.3270   10.3200    0.4320 O   0  0  0  0  0
   27.7520   10.0260    0.4470 C   0  0  0  0  0
   28.2080    9.2280   -0.7690 C   0  0  0  0  0
   29.1480    8.4040   -0.6340 O   0  0  0  0  0
   27.6260    9.4150   -1.8690 O   0  5  0  0  0
   16.3936    8.0231    0.5075 H   0  0  0  0  0
   18.0163    9.4465    1.6841 H   0  0  0  0  0
   21.1121    6.4631    1.0586 H   0  0  0  0  0
   19.4575    5.0307   -0.1346 H   0  0  0  0  0
   21.7579   10.2988    4.8204 H   0  0  0  0  0
   23.4539    9.6875    3.3541 H   0  0  0  0  0
   20.4943   12.5234    4.4665 H   0  0  0  0  0
   20.0780   12.3260    1.9264 H   0  0  0  0  0
   20.9503   13.8526    2.2942 H   0  0  0  0  0
   21.8262   11.6528    0.5340 H   0  0  0  0  0
   22.6852   13.1921    0.8792 H   0  0  0  0  0
   24.1835   13.3654    3.0072 H   0  0  0  0  0
   24.4581   11.9188    4.0361 H   0  0  0  0  0
   22.8846   12.5119    5.2725 H   0  0  0  0  0
   22.5887   13.9408    4.2249 H   0  0  0  0  0
   24.1650   10.7495    0.3553 H   0  0  0  0  0
   27.9807    9.4457    1.3530 H   0  0  0  0  0
   28.3058   10.9761    0.4706 H   0  0  0  0  0
  5  6  1  0  0  0
  6  8  1  0  0  0
  6  7  2  0  0  0
  8  9  1  0  0  0
  9 14  4  0  0  0
  9 10  4  0  0  0
 10 11  4  0  0  0
 11 12  4  0  0  0
 12 15  1  0  0  0
 12 13  4  0  0  0
 13 14  4  0  0  0
 15 19  1  0  0  0
 15 16  1  0  0  0
 16 20  2  0  0  0
 16 17  1  0  0  0
 17 22  1  0  0  0
 17 18  1  0  0  0
 18 27  1  0  0  0
 18 19  1  0  0  0
 19 21  2  0  0  0
 27 25  1  0  0  0
 27 28  1  0  0  0
 27 24  1  0  0  0
 24 23  1  0  0  0
 23 22  1  0  0  0
 22 26  1  0  0  0
 26 25  1  0  0  0
 28 29  1  0  0  0
 29 31  1  0  0  0
 29 30  2  0  0  0
 31 32  1  0  0  0
 32 33  1  0  0  0
 33 35  1  0  0  0
 33 34  2  0  0  0
  5  1  1  0  0  0
  5  2  1  0  0  0
  5  3  1  0  0  0
  8  4  1  0  0  0
 10 36  1  0  0  0
 11 37  1  0  0  0
 13 38  1  0  0  0
 14 39  1  0  0  0
 17 40  1  0  0  0
 18 41  1  0  0  0
 22 42  1  0  0  0
 23 43  1  0  0  0
 23 44  1  0  0  0
 24 45  1  0  0  0
 24 46  1  0  0  0
 25 47  1  0  0  0
 25 48  1  0  0  0
 26 49  1  0  0  0
 26 50  1  0  0  0
 28 51  1  0  0  0
 32 52  1  0  0  0
 32 53  1  0  0  0
M  END
$$$$
