1aj6_ligand
  -I-interpret- 

 80 83  0  0  0  0  0  0  0  0999 V2000
   60.2080   -1.1770   37.8380 C   0  0  0  0  0
   60.3090   -2.4250   37.1380 O   0  0  0  0  0
   58.4870   -3.0220   41.3780 N   0  0  0  0  0
   58.5440   -3.8040   40.3320 C   0  0  0  0  0
   58.7060   -4.9860   40.4060 O   0  0  0  0  0
   58.4500   -3.1640   39.1960 O   0  0  0  0  0
   59.0250   -2.9850   36.8350 C   0  0  0  0  0
   58.5870   -3.9190   37.9570 C   0  0  0  0  0
   57.1810   -4.3810   37.6050 C   0  0  0  0  0
   56.2950   -3.2810   37.7570 O   0  0  0  0  0
   57.1980   -5.0740   36.2490 C   0  0  0  0  0
   57.7020   -4.2550   35.1850 O   0  0  0  0  0
   58.9310   -3.5770   35.4010 C   0  0  0  0  0
   60.1340   -4.5170   35.1500 C   0  0  0  0  0
   58.8800   -2.4100   34.3740 C   0  0  0  0  0
   58.1130   -6.1070   36.5160 O   0  0  0  0  0
   58.2370   -7.1590   35.6250 C   0  0  0  0  0
   59.0090   -8.1900   36.1540 C   0  0  0  0  0
   59.6180   -8.1800   37.4960 C   0  0  0  0  0
   59.1650   -9.3130   35.4250 C   0  0  0  0  0
   58.6370   -9.4340   34.1250 C   0  0  0  0  0
   57.7990   -8.4310   33.5990 C   0  0  0  0  0
   57.5800   -7.2840   34.3710 C   0  0  0  0  0
   59.9600  -10.2950   36.0390 O   0  0  0  0  0
   60.2710  -11.3850   35.3620 C   0  0  0  0  0
   61.0220  -12.2030   35.7970 O   0  0  0  0  0
   59.7300  -11.5880   33.9960 C   0  0  0  0  0
   58.9640  -10.6720   33.3960 C   0  0  0  0  0
   58.5030  -10.8790   32.1470 O   0  0  0  0  0
   59.9720  -12.8740   33.3740 N   0  0  0  0  0
   60.9640  -13.2710   32.5620 C   0  0  0  0  0
   60.9380  -14.4120   32.1770 O   0  0  0  0  0
   62.0440  -12.4090   32.0930 C   0  0  0  0  0
   61.7860  -11.1750   31.4630 C   0  0  0  0  0
   62.8800  -10.4360   30.9820 C   0  0  0  0  0
   64.1750  -10.9130   31.1700 C   0  0  0  0  0
   65.2390  -10.1760   30.7190 O   0  0  0  0  0
   64.4340  -12.1480   31.7980 C   0  0  0  0  0
   63.3420  -12.9030   32.2510 C   0  0  0  0  0
   62.6940   -9.0810   30.3490 C   0  0  0  0  0
   62.7960   -7.8970   31.2920 C   0  0  0  0  0
   61.8120   -7.0620   31.6820 C   0  0  0  0  0
   62.0520   -5.9260   32.6540 C   0  0  0  0  0
   60.3980   -7.1480   31.1990 C   0  0  0  0  0
   61.2167   -0.7906   38.0460 H   0  0  0  0  0
   59.6715   -1.3306   38.7859 H   0  0  0  0  0
   59.6584   -0.4527   37.2188 H   0  0  0  0  0
   58.5496   -3.4110   42.2971 H   0  0  0  0  0
   58.3808   -2.0348   41.2590 H   0  0  0  0  0
   58.3133   -2.1464   36.8474 H   0  0  0  0  0
   59.2848   -4.7615   38.0726 H   0  0  0  0  0
   56.8734   -5.1392   38.3402 H   0  0  0  0  0
   56.3722   -2.9330   38.6376 H   0  0  0  0  0
   56.2019   -5.4557   35.9805 H   0  0  0  0  0
   60.0667   -4.9355   34.1350 H   0  0  0  0  0
   60.1200   -5.3348   35.8855 H   0  0  0  0  0
   61.0705   -3.9490   35.2510 H   0  0  0  0  0
   58.8133   -2.8205   33.3556 H   0  0  0  0  0
   59.7917   -1.8013   34.4650 H   0  0  0  0  0
   57.9989   -1.7829   34.5749 H   0  0  0  0  0
   59.4189   -7.2134   37.9818 H   0  0  0  0  0
   60.7042   -8.3287   37.4069 H   0  0  0  0  0
   59.1854   -8.9904   38.1011 H   0  0  0  0  0
   57.3373   -8.5442   32.6248 H   0  0  0  0  0
   56.9183   -6.5017   34.0171 H   0  0  0  0  0
   58.8091  -11.7218   31.8333 H   0  0  0  0  0
   59.2922  -13.5771   33.5828 H   0  0  0  0  0
   60.7725  -10.8065   31.3527 H   0  0  0  0  0
   64.9213   -9.3742   30.3207 H   0  0  0  0  0
   65.4494  -12.5047   31.9274 H   0  0  0  0  0
   63.5041  -13.8659   32.7218 H   0  0  0  0  0
   61.6972   -9.0585   29.8844 H   0  0  0  0  0
   63.4635   -8.9620   29.5721 H   0  0  0  0  0
   63.7841   -7.6973   31.7039 H   0  0  0  0  0
   61.1104   -5.3831   32.8232 H   0  0  0  0  0
   62.8018   -5.2381   32.2362 H   0  0  0  0  0
   62.4180   -6.3315   33.6088 H   0  0  0  0  0
   60.2999   -7.9920   30.5004 H   0  0  0  0  0
   60.1285   -6.2135   30.6851 H   0  0  0  0  0
   59.7263   -7.3018   32.0564 H   0  0  0  0  0
  1  2  1  0  0  0
  2  7  1  0  0  0
  7 13  1  0  0  0
  7  8  1  0  0  0
  8  9  1  0  0  0
  8  6  1  0  0  0
  6  4  1  0  0  0
  4  5  2  0  0  0
  4  3  1  0  0  0
  9 11  1  0  0  0
  9 10  1  0  0  0
 11 16  1  0  0  0
 11 12  1  0  0  0
 12 13  1  0  0  0
 13 15  1  0  0  0
 13 14  1  0  0  0
 16 17  1  0  0  0
 17 23  4  0  0  0
 17 18  4  0  0  0
 18 20  4  0  0  0
 18 19  1  0  0  0
 20 24  1  0  0  0
 20 21  4  0  0  0
 21 28  1  0  0  0
 21 22  4  0  0  0
 22 23  4  0  0  0
 28 29  1  0  0  0
 28 27  2  0  0  0
 27 30  1  0  0  0
 27 25  1  0  0  0
 25 26  2  0  0  0
 25 24  1  0  0  0
 30 31  1  0  0  0
 31 33  1  0  0  0
 31 32  2  0  0  0
 33 39  4  0  0  0
 33 34  4  0  0  0
 34 35  4  0  0  0
 35 40  1  0  0  0
 35 36  4  0  0  0
 36 38  4  0  0  0
 36 37  1  0  0  0
 38 39  4  0  0  0
 40 41  1  0  0  0
 41 42  2  0  0  0
 42 44  1  0  0  0
 42 43  1  0  0  0
  1 45  1  0  0  0
  1 46  1  0  0  0
  1 47  1  0  0  0
  3 48  1  0  0  0
  3 49  1  0  0  0
  7 50  1  0  0  0
  8 51  1  0  0  0
  9 52  1  0  0  0
 10 53  1  0  0  0
 11 54  1  0  0  0
 14 55  1  0  0  0
 14 56  1  0  0  0
 14 57  1  0  0  0
 15 58  1  0  0  0
 15 59  1  0  0  0
 15 60  1  0  0  0
 19 61  1  0  0  0
 19 62  1  0  0  0
 19 63  1  0  0  0
 22 64  1  0  0  0
 23 65  1  0  0  0
 29 66  1  0  0  0
 30 67  1  0  0  0
 34 68  1  0  0  0
 37 69  1  0  0  0
 38 70  1  0  0  0
 39 71  1  0  0  0
 40 72  1  0  0  0
 40 73  1  0  0  0
 41 74  1  0  0  0
 43 75  1  0  0  0
 43 76  1  0  0  0
 43 77  1  0  0  0
 44 78  1  0  0  0
 44 79  1  0  0  0
 44 80  1  0  0  0
M  END
$$$$
