1pph_ligand
  -I-interpret- 

 59 61  0  0  0  0  0  0  0  0999 V2000
   -5.9300    4.1070   23.9760 S   0  0  0  0  0
   -4.8070    4.0070   25.3830 C   0  0  0  0  0
   -4.2000    2.8170   25.7530 C   0  0  0  0  0
   -4.4829    1.8815   25.2842 H   0  0  0  0  0
   -3.2240    2.8500   26.7350 C   0  0  0  0  0
   -2.7254    1.9371   27.0400 H   0  0  0  0  0
   -2.8870    4.0670   27.3290 C   0  0  0  0  0
   -1.7820    4.1410   28.3860 C   0  0  0  0  0
   -1.6704    5.1807   28.7275 H   0  0  0  0  0
   -0.8335    3.7945   27.9498 H   0  0  0  0  0
   -2.0482    3.5011   29.2402 H   0  0  0  0  0
   -3.5280    5.2410   26.9810 C   0  0  0  0  0
   -3.2732    6.1742   27.4702 H   0  0  0  0  0
   -4.4930    5.2050   26.0050 C   0  0  0  0  0
   -5.0098    6.1145   25.7207 H   0  0  0  0  0
   -7.0380    5.0670   24.3810 O   0  0  0  0  0
   -6.4450    2.7280   23.5830 O   0  0  0  0  0
   -2.6780    4.5080   22.8020 C   0  0  0  0  0
   -2.5950    5.6420   23.3040 O   0  0  0  0  0
   -3.9800    4.1220   22.0690 C   0  0  0  0  0
   -4.1138    3.0353   22.1749 H   0  0  0  0  0
   -5.1570    4.7810   22.6350 N   0  0  0  0  0
   -5.5023    5.6273   22.2292 H   0  0  0  0  0
   -3.8870    4.4550   20.5690 C   0  0  0  0  0
   -4.9120    4.5786   20.1895 H   0  0  0  0  0
   -3.4100    3.6012   20.0656 H   0  0  0  0  0
   -3.0970    5.7160   20.1980 C   0  0  0  0  0
   -1.7560    5.6350   19.8730 C   0  0  0  0  0
   -1.2391    4.6827   19.9055 H   0  0  0  0  0
   -1.0870    6.7790   19.5080 C   0  0  0  0  0
   -0.0345    6.7149   19.2566 H   0  0  0  0  0
   -1.7150    8.0070   19.4520 C   0  0  0  0  0
   -1.1534    8.8868   19.1596 H   0  0  0  0  0
   -3.0700    8.1220   19.7700 C   0  0  0  0  0
   -3.7400    9.3550   19.6970 C   0  3  0  0  0
   -5.5342   10.3408   19.9688 H   0  0  0  0  0
   -5.0450    9.4360   20.0230 N   0  0  0  0  0
   -5.5533    8.5931   20.3264 H   0  0  0  0  0
   -2.0598   10.3768   19.0731 H   0  0  0  0  0
   -3.0570   10.4510   19.3200 N   0  0  0  0  0
   -3.5313   11.3644   19.2782 H   0  0  0  0  0
   -4.7590    7.0107   20.3971 H   0  0  0  0  0
   -3.7080    6.9530   20.1380 C   0  0  0  0  0
   -0.4006    5.0942   23.7560 H   0  0  0  0  0
   -1.6380    3.6540   22.8470 N   0  0  0  0  0
   -0.3530    4.0580   23.3900 C   0  0  0  0  0
    0.4302    3.9760   22.6220 H   0  0  0  0  0
   -0.9012    3.1294   25.2497 H   0  0  0  0  0
   -0.0730    3.1140   24.5260 C   0  0  0  0  0
    0.8625    3.3921   25.0333 H   0  0  0  0  0
    0.2863    1.0168   24.6913 H   0  0  0  0  0
    0.0540    1.7490   23.9040 C   0  0  0  0  0
    0.8700    1.7659   23.1666 H   0  0  0  0  0
   -2.0420    1.2638   23.9509 H   0  0  0  0  0
   -1.2340    1.3360   23.2080 C   0  0  0  0  0
   -1.0898    0.3575   22.7267 H   0  0  0  0  0
   -0.8606    2.3714   21.3530 H   0  0  0  0  0
   -1.6090    2.3590   22.1590 C   0  0  0  0  0
   -2.5984    2.1284   21.7372 H   0  0  0  0  0
  1  2  1  0  0  0
  1 16  2  0  0  0
  1 17  2  0  0  0
  2  3  4  0  0  0
  2 14  4  0  0  0
  3  4  1  0  0  0
  3  5  4  0  0  0
  5  6  1  0  0  0
  5  7  4  0  0  0
  7  8  1  0  0  0
 12  7  4  0  0  0
  8  9  1  0  0  0
  8 10  1  0  0  0
  8 11  1  0  0  0
 12 13  1  0  0  0
 14 12  4  0  0  0
 14 15  1  0  0  0
 18 19  2  0  0  0
 18 20  1  0  0  0
 45 18  1  0  0  0
 20 21  1  0  0  0
 20 22  1  0  0  0
 20 24  1  0  0  0
 22  1  1  0  0  0
 22 23  1  0  0  0
 24 25  1  0  0  0
 24 26  1  0  0  0
 24 27  1  0  0  0
 27 28  4  0  0  0
 27 43  4  0  0  0
 28 29  1  0  0  0
 28 30  4  0  0  0
 30 31  1  0  0  0
 30 32  4  0  0  0
 32 33  1  0  0  0
 34 32  4  0  0  0
 34 35  1  0  0  0
 43 34  4  0  0  0
 37 36  1  0  0  0
 35 37  1  0  0  0
 35 40  1  0  0  0
 37 38  1  0  0  0
 40 39  1  0  0  0
 40 41  1  0  0  0
 43 42  1  0  0  0
 46 44  1  0  0  0
 46 45  1  0  0  0
 45 58  1  0  0  0
 46 47  1  0  0  0
 49 48  1  0  0  0
 49 46  1  0  0  0
 49 50  1  0  0  0
 52 51  1  0  0  0
 52 49  1  0  0  0
 52 53  1  0  0  0
 55 54  1  0  0  0
 52 55  1  0  0  0
 55 56  1  0  0  0
 58 57  1  0  0  0
 55 58  1  0  0  0
 58 59  1  0  0  0
M  END
$$$$
