### 
### Created by X-TOOL on Mon Oct 24 22:55:49 2005
### 

@<TRIPOS>MOLECULE
1pph_ligand
   59    61     1     0     0
SMALL
GAST_HUCK


@<TRIPOS>ATOM
      1 S          -5.9300    4.1070   23.9760 S.o2      1 SUB1        0.068
      2 C1         -4.8070    4.0070   25.3830 C.ar      1 SUB1        0.101
      3 C6         -4.2000    2.8170   25.7530 C.ar      1 SUB1       -0.042
      4 H31        -4.4829    1.8815   25.2842 H         1 SUB1        0.062
      5 C5         -3.2240    2.8500   26.7350 C.ar      1 SUB1       -0.059
      6 H51        -2.7254    1.9371   27.0400 H         1 SUB1        0.056
      7 C4         -2.8870    4.0670   27.3290 C.ar      1 SUB1       -0.046
      8 C7         -1.7820    4.1410   28.3860 C.3       1 SUB1       -0.031
      9 H81        -1.6704    5.1807   28.7275 H         1 SUB1        0.039
     10 H82        -0.8335    3.7945   27.9498 H         1 SUB1        0.039
     11 H83        -2.0482    3.5011   29.2402 H         1 SUB1        0.039
     12 C3         -3.5280    5.2410   26.9810 C.ar      1 SUB1       -0.059
     13 H121       -3.2732    6.1742   27.4702 H         1 SUB1        0.056
     14 C2         -4.4930    5.2050   26.0050 C.ar      1 SUB1       -0.042
     15 H141       -5.0098    6.1145   25.7207 H         1 SUB1        0.062
     16 O2         -7.0380    5.0670   24.3810 O.2       1 SUB1       -0.151
     17 O1         -6.4450    2.7280   23.5830 O.2       1 SUB1       -0.151
     18 C          -2.6780    4.5080   22.8020 C.2       1 SUB1        0.202
     19 O          -2.5950    5.6420   23.3040 O.2       1 SUB1       -0.395
     20 CA         -3.9800    4.1220   22.0690 C.3       1 SUB1        0.136
     21 H201       -4.1138    3.0353   22.1749 H         1 SUB1        0.078
     22 N          -5.1570    4.7810   22.6350 N.am      1 SUB1       -0.224
     23 H221       -5.5023    5.6273   22.2292 H         1 SUB1        0.171
     24 CB         -3.8870    4.4550   20.5690 C.3       1 SUB1        0.018
     25 H241       -4.9120    4.5786   20.1895 H         1 SUB1        0.047
     26 H242       -3.4100    3.6012   20.0656 H         1 SUB1        0.047
     27 CG         -3.0970    5.7160   20.1980 C.ar      1 SUB1       -0.034
     28 CD2        -1.7560    5.6350   19.8730 C.ar      1 SUB1       -0.060
     29 H281       -1.2391    4.6827   19.9055 H         1 SUB1        0.056
     30 CE2        -1.0870    6.7790   19.5080 C.ar      1 SUB1       -0.064
     31 H301       -0.0345    6.7149   19.2566 H         1 SUB1        0.060
     32 CZ         -1.7150    8.0070   19.4520 C.ar      1 SUB1       -0.014
     33 H321       -1.1534    8.8868   19.1596 H         1 SUB1        0.061
     34 CE1        -3.0700    8.1220   19.7700 C.ar      1 SUB1        0.179
     35 CF         -3.7400    9.3550   19.6970 C.cat     1 SUB1        0.315
     36 H371       -5.5342   10.3408   19.9688 H         1 SUB1        0.192
     37 NG2        -5.0450    9.4360   20.0230 N.pl3     1 SUB1       -0.200
     38 H372       -5.5533    8.5931   20.3264 H         1 SUB1        0.192
     39 H401       -2.0598   10.3768   19.0731 H         1 SUB1        0.192
     40 NG1        -3.0570   10.4510   19.3200 N.pl3     1 SUB1       -0.200
     41 H402       -3.5313   11.3644   19.2782 H         1 SUB1        0.192
     42 H431       -4.7590    7.0107   20.3971 H         1 SUB1        0.060
     43 CD1        -3.7080    6.9530   20.1380 C.ar      1 SUB1       -0.005
     44 H461       -0.4006    5.0942   23.7560 H         1 SUB1        0.052
     45 N1         -1.6380    3.6540   22.8470 N.am      1 SUB1       -0.271
     46 C6         -0.3530    4.0580   23.3900 C.3       1 SUB1        0.034
     47 H462        0.4302    3.9760   22.6220 H         1 SUB1        0.052
     48 H491       -0.9012    3.1294   25.2497 H         1 SUB1        0.029
     49 C5         -0.0730    3.1140   24.5260 C.3       1 SUB1       -0.032
     50 H492        0.8625    3.3921   25.0333 H         1 SUB1        0.029
     51 H521        0.2863    1.0168   24.6913 H         1 SUB1        0.027
     52 C4          0.0540    1.7490   23.9040 C.3       1 SUB1       -0.049
     53 H522        0.8700    1.7659   23.1666 H         1 SUB1        0.027
     54 H551       -2.0420    1.2638   23.9509 H         1 SUB1        0.029
     55 C3         -1.2340    1.3360   23.2080 C.3       1 SUB1       -0.032
     56 H552       -1.0898    0.3575   22.7267 H         1 SUB1        0.029
     57 H581       -0.8606    2.3714   21.3530 H         1 SUB1        0.052
     58 C2         -1.6090    2.3590   22.1590 C.3       1 SUB1        0.034
     59 H582       -2.5984    2.1284   21.7372 H         1 SUB1        0.052
@<TRIPOS>BOND
     1    1    2 1  
     2    1   16 2  
     3    1   17 2  
     4    2    3 ar 
     5    2   14 ar 
     6    3    4 1  
     7    3    5 ar 
     8    5    6 1  
     9    5    7 ar 
    10    7    8 1  
    11   12    7 ar 
    12    8    9 1  
    13    8   10 1  
    14    8   11 1  
    15   12   13 1  
    16   14   12 ar 
    17   14   15 1  
    18   18   19 2  
    19   18   20 1  
    20   45   18 am 
    21   20   21 1  
    22   20   22 1  
    23   20   24 1  
    24   22    1 1  
    25   22   23 1  
    26   24   25 1  
    27   24   26 1  
    28   24   27 1  
    29   27   28 ar 
    30   27   43 ar 
    31   28   29 1  
    32   28   30 ar 
    33   30   31 1  
    34   30   32 ar 
    35   32   33 1  
    36   34   32 ar 
    37   34   35 1  
    38   43   34 ar 
    39   37   36 1  
    40   35   37 1  
    41   35   40 1  
    42   37   38 1  
    43   40   39 1  
    44   40   41 1  
    45   43   42 1  
    46   46   44 1  
    47   46   45 1  
    48   45   58 1  
    49   46   47 1  
    50   49   48 1  
    51   49   46 1  
    52   49   50 1  
    53   52   51 1  
    54   52   49 1  
    55   52   53 1  
    56   55   54 1  
    57   52   55 1  
    58   55   56 1  
    59   58   57 1  
    60   55   58 1  
    61   58   59 1  
@<TRIPOS>SUBSTRUCTURE
     1 SUB1        1 GROUP

