1jn4_ligand
  -I-interpret- 

 65 69  0  0  0  0  0  0  0  0999 V2000
   38.2920   -4.5690   21.3040 P   0  0  0  0  0
   39.5180   -5.4320   21.6050 O   0  5  0  0  0
   38.6310   -3.1840   20.8300 O   0  0  0  0  0
   37.3170   -5.2440   20.2290 O   0  0  0  0  0
   36.6710   -3.1780   23.3400 P   0  0  0  0  0
   35.7040   -2.6350   22.3290 O   0  5  0  0  0
   36.1520   -3.7130   24.6280 O   0  0  0  0  0
   37.4460   -4.3870   22.6440 O   0  0  0  0  0
   36.2080   -6.0370   15.8320 N   0  0  0  0  0
   36.7040   -4.7590   15.6500 C   0  0  0  0  0
   37.6880   -4.1340   16.3470 N   0  0  0  0  0
   37.8970   -2.8860   15.8740 C   0  0  0  0  0
   37.2730   -2.2500   14.8570 N   0  0  0  0  0
   36.3030   -2.9170   14.1700 C   0  0  0  0  0
   35.7030   -2.3140   13.1430 N   0  0  0  0  0
   35.9840   -4.2330   14.5780 C   0  0  0  0  0
   35.0540   -5.1480   14.1080 N   0  0  0  0  0
   35.2170   -6.1880   14.8880 C   0  0  0  0  0
   36.9230   -6.6140   20.3560 C   0  0  0  0  0
   37.0740   -7.3420   19.0340 C   0  0  0  0  0
   36.1360   -6.8020   18.0740 O   0  0  0  0  0
   36.6090   -7.0940   16.7740 C   0  0  0  0  0
   38.0860   -7.5090   16.8650 C   0  0  0  0  0
   38.2470   -8.8820   16.5280 O   0  0  0  0  0
   38.4210   -7.2040   18.3290 C   0  0  0  0  0
   39.4730   -8.0630   18.8260 O   0  0  0  0  0
   39.5470    1.6130   21.9190 O   0  0  0  0  0
   40.1740    0.5400   22.6430 C   0  0  0  0  0
   39.1940   -0.0860   23.6090 C   0  0  0  0  0
   38.5010    0.9770   24.3210 O   0  0  0  0  0
   37.0970    0.8160   24.1780 C   0  0  0  0  0
   36.9050   -0.0220   22.9250 C   0  0  0  0  0
   38.1070   -0.9510   22.9570 C   0  0  0  0  0
   37.8550   -2.1310   23.7490 O   0  0  0  0  0
   36.4630    2.1460   24.0960 N   0  0  0  0  0
   36.9770    3.1570   23.2860 C   0  0  0  0  0
   35.2930    2.3490   24.8400 C   0  0  0  0  0
   34.8100    1.5030   25.5720 O   0  0  0  0  0
   34.7060    3.5830   24.6720 N   0  0  0  0  0
   35.1330    4.6110   23.8430 C   0  0  0  0  0
   34.3720    5.5600   23.6340 O   0  0  0  0  0
   36.3680    4.3450   23.1350 C   0  0  0  0  0
   38.6699   -2.3173   16.3782 H   0  0  0  0  0
   34.9683   -2.8059   12.6147 H   0  0  0  0  0
   35.9743   -1.3563   12.8780 H   0  0  0  0  0
   34.6199   -7.0942   14.7975 H   0  0  0  0  0
   37.5583   -7.1110   21.1038 H   0  0  0  0  0
   35.8688   -6.6657   20.6656 H   0  0  0  0  0
   36.8840   -8.4115   19.2069 H   0  0  0  0  0
   36.0895   -8.0008   16.4309 H   0  0  0  0  0
   38.7162   -6.8966   16.2034 H   0  0  0  0  0
   39.1655   -9.1167   16.5907 H   0  0  0  0  0
   38.7832   -6.1703   18.4294 H   0  0  0  0  0
   39.1957   -8.9696   18.7643 H   0  0  0  0  0
   39.2492    2.2753   22.5316 H   0  0  0  0  0
   40.5143   -0.2320   21.9372 H   0  0  0  0  0
   41.0298    0.9302   23.2133 H   0  0  0  0  0
   39.7517   -0.7186   24.3151 H   0  0  0  0  0
   36.6749    0.2907   25.0474 H   0  0  0  0  0
   35.9696   -0.5993   22.9663 H   0  0  0  0  0
   36.9219    0.6003   22.0181 H   0  0  0  0  0
   38.3953   -1.2648   21.9429 H   0  0  0  0  0
   37.9100    2.9767   22.7540 H   0  0  0  0  0
   33.8796    3.7582   25.2071 H   0  0  0  0  0
   36.8005    5.1034   22.4841 H   0  0  0  0  0
  1  2  1  0  0  0
  1  3  2  0  0  0
  1  4  1  0  0  0
  8  1  1  0  0  0
  4 19  1  0  0  0
  5  6  1  0  0  0
  5  7  2  0  0  0
  5  8  1  0  0  0
 34  5  1  0  0  0
  9 10  1  0  0  0
  9 18  1  0  0  0
 10 11  4  0  0  0
 10 16  4  0  0  0
 11 12  4  0  0  0
 12 13  4  0  0  0
 14 13  4  0  0  0
 14 15  1  0  0  0
 16 14  4  0  0  0
 17 16  1  0  0  0
 18 17  2  0  0  0
 19 20  1  0  0  0
 20 21  1  0  0  0
 20 25  1  0  0  0
 21 22  1  0  0  0
 22  9  1  0  0  0
 23 22  1  0  0  0
 23 24  1  0  0  0
 25 23  1  0  0  0
 25 26  1  0  0  0
 28 27  1  0  0  0
 29 28  1  0  0  0
 29 30  1  0  0  0
 33 29  1  0  0  0
 31 30  1  0  0  0
 32 31  1  0  0  0
 33 32  1  0  0  0
 34 33  1  0  0  0
 31 35  1  0  0  0
 35 36  1  0  0  0
 35 37  1  0  0  0
 36 42  2  0  0  0
 37 38  2  0  0  0
 37 39  1  0  0  0
 39 40  1  0  0  0
 40 41  2  0  0  0
 40 42  1  0  0  0
 12 43  1  0  0  0
 15 44  1  0  0  0
 15 45  1  0  0  0
 18 46  1  0  0  0
 19 47  1  0  0  0
 19 48  1  0  0  0
 20 49  1  0  0  0
 22 50  1  0  0  0
 23 51  1  0  0  0
 24 52  1  0  0  0
 25 53  1  0  0  0
 26 54  1  0  0  0
 27 55  1  0  0  0
 28 56  1  0  0  0
 28 57  1  0  0  0
 29 58  1  0  0  0
 31 59  1  0  0  0
 32 60  1  0  0  0
 32 61  1  0  0  0
 33 62  1  0  0  0
 36 63  1  0  0  0
 39 64  1  0  0  0
 42 65  1  0  0  0
M  END
$$$$
