1o2h_ligand
  -I-interpret- 

 47 50  0  0  0  0  0  0  0  0999 V2000
   44.1400   -3.1040   25.9440 C   0  0  0  0  0
   44.5190   -1.7550   25.9650 C   0  0  0  0  0
   44.4780   -1.0230   27.1310 C   0  0  0  0  0
   44.0620   -1.6440   28.2700 C   0  0  0  0  0
   43.6940   -2.9320   28.3020 C   0  0  0  0  0
   43.7190   -3.7100   27.1470 C   0  0  0  0  0
   44.1870   -3.7960   24.7220 C   0  3  0  0  0
   43.7630   -5.0340   24.6370 N   0  0  0  0  0
   44.6520   -3.1710   23.6660 N   0  0  0  0  0
   43.9310   -1.1950   29.4660 N   0  0  0  0  0
   43.3260   -3.2990   29.5100 C   0  0  0  0  0
   43.4970   -2.1720   30.2060 C   0  0  0  0  0
   43.2730   -2.0230   31.5870 C   0  0  0  0  0
   42.9380   -3.1330   32.3600 C   0  0  0  0  0
   42.7530   -3.0090   33.7340 C   0  0  0  0  0
   42.9010   -1.7850   34.3510 C   0  0  0  0  0
   43.2380   -0.6650   33.6030 C   0  0  0  0  0
   43.4200    0.5850   34.1790 O   0  0  0  0  0
   43.4190   -0.7770   32.2330 C   0  0  0  0  0
   43.7230    0.3890   31.5520 O   0  0  0  0  0
   43.2820    2.3340   35.7960 C   0  0  0  0  0
   43.6090    0.8510   35.5750 C   0  0  0  0  0
   45.1250    0.7100   35.8680 C   0  0  0  0  0
   45.5920    2.0560   36.4380 C   0  0  0  0  0
   44.3290    2.8400   36.7720 C   0  0  0  0  0
   44.8570   -1.2520   25.0780 H   0  0  0  0  0
   44.7720    0.0140   27.1510 H   0  0  0  0  0
   43.4230   -4.7480   27.1780 H   0  0  0  0  0
   43.4400   -5.5020   25.4720 H   0  0  0  0  0
   43.7830   -5.5920   23.8100 H   0  0  0  0  0
   45.0030   -2.2290   23.7470 H   0  0  0  0  0
   44.7560   -3.6130   22.7800 H   0  0  0  0  0
   44.1250   -0.2970   29.8230 H   0  0  0  0  0
   42.9920   -4.2180   29.8350 H   0  0  0  0  0
   42.8220   -4.0990   31.8930 H   0  0  0  0  0
   42.4910   -3.8730   34.3270 H   0  0  0  0  0
   42.7590   -1.7200   35.4170 H   0  0  0  0  0
   43.0120    0.2030   36.1930 H   0  0  0  0  0
   45.3040   -0.0720   36.5950 H   0  0  0  0  0
   45.6940    0.4800   34.9770 H   0  0  0  0  0
   46.2230    2.5800   35.7330 H   0  0  0  0  0
   46.1570    1.8800   37.3350 H   0  0  0  0  0
   44.5090    3.8950   36.6640 H   0  0  0  0  0
   44.0430    2.6280   37.7930 H   0  0  0  0  0
   43.3760    2.8930   34.8780 H   0  0  0  0  0
   42.2930    2.4480   36.2080 H   0  0  0  0  0
   44.5326    0.7512   31.8923 H   0  0  0  0  0
  1  2  4  0  0  0
  6  1  4  0  0  0
  1  7  1  0  0  0
  3  2  4  0  0  0
  2 26  1  0  0  0
  4  3  4  0  0  0
  3 27  1  0  0  0
  5  4  4  0  0  0
 10  4  1  0  0  0
  5  6  4  0  0  0
 11  5  1  0  0  0
  6 28  1  0  0  0
  7  8  1  0  0  0
  7  9  1  0  0  0
  8 29  1  0  0  0
  8 30  1  0  0  0
  9 31  1  0  0  0
  9 32  1  0  0  0
 12 10  1  0  0  0
 10 33  1  0  0  0
 12 11  2  0  0  0
 11 34  1  0  0  0
 13 12  1  0  0  0
 13 14  4  0  0  0
 19 13  4  0  0  0
 15 14  4  0  0  0
 14 35  1  0  0  0
 16 15  4  0  0  0
 15 36  1  0  0  0
 17 16  4  0  0  0
 16 37  1  0  0  0
 18 17  1  0  0  0
 17 19  4  0  0  0
 22 18  1  0  0  0
 19 20  1  0  0  0
 23 22  1  0  0  0
 22 38  1  0  0  0
 24 23  1  0  0  0
 23 39  1  0  0  0
 23 40  1  0  0  0
 25 24  1  0  0  0
 24 41  1  0  0  0
 24 42  1  0  0  0
 25 43  1  0  0  0
 25 44  1  0  0  0
 21 46  1  0  0  0
 21 45  1  0  0  0
 25 21  1  0  0  0
 22 21  1  0  0  0
 20 47  1  0  0  0
M  END
$$$$
