### 
### Created by X-TOOL on Mon Oct 24 22:36:48 2005
### 

@<TRIPOS>MOLECULE
1o2h_ligand
   47    50     1     0     0
SMALL
GAST_HUCK


@<TRIPOS>ATOM
      1 C1         44.1400   -3.1040   25.9440 C.ar      1 SUB1        0.169
      2 C2         44.5190   -1.7550   25.9650 C.ar      1 SUB1       -0.022
      3 C3         44.4780   -1.0230   27.1310 C.ar      1 SUB1       -0.039
      4 C4         44.0620   -1.6440   28.2700 C.ar      1 SUB1        0.063
      5 C5         43.6940   -2.9320   28.3020 C.ar      1 SUB1       -0.023
      6 C6         43.7190   -3.7100   27.1470 C.ar      1 SUB1       -0.021
      7 C7         44.1870   -3.7960   24.7220 C.cat     1 SUB1        0.309
      8 N1         43.7630   -5.0340   24.6370 N.pl3     1 SUB1       -0.201
      9 N2         44.6520   -3.1710   23.6660 N.pl3     1 SUB1       -0.201
     10 N3         43.9310   -1.1950   29.4660 N.pl3     1 SUB1       -0.276
     11 CN4        43.3260   -3.2990   29.5100 C.2       1 SUB1       -0.058
     12 C8         43.4970   -2.1720   30.2060 C.2       1 SUB1        0.057
     13 C1'        43.2730   -2.0230   31.5870 C.ar      1 SUB1        0.028
     14 C2'        42.9380   -3.1330   32.3600 C.ar      1 SUB1       -0.071
     15 C3'        42.7530   -3.0090   33.7340 C.ar      1 SUB1       -0.081
     16 C4'        42.9010   -1.7850   34.3510 C.ar      1 SUB1       -0.041
     17 C5'        43.2380   -0.6650   33.6030 C.ar      1 SUB1        0.122
     18 O5'        43.4200    0.5850   34.1790 O.3       1 SUB1       -0.319
     19 C6'        43.4190   -0.7770   32.2330 C.ar      1 SUB1        0.130
     20 O6'        43.7230    0.3890   31.5520 O.3       1 SUB1       -0.334
     21 C1''       43.2820    2.3340   35.7960 C.3       1 SUB1       -0.023
     22 C2''       43.6090    0.8510   35.5750 C.3       1 SUB1        0.079
     23 C3''       45.1250    0.7100   35.8680 C.3       1 SUB1       -0.023
     24 C4''       45.5920    2.0560   36.4380 C.3       1 SUB1       -0.050
     25 C5''       44.3290    2.8400   36.7720 C.3       1 SUB1       -0.050
     26 H21        44.8570   -1.2520   25.0780 H         1 SUB1        0.057
     27 H31        44.7720    0.0140   27.1510 H         1 SUB1        0.054
     28 H61        43.4230   -4.7480   27.1780 H         1 SUB1        0.058
     29 H81        43.4400   -5.5020   25.4720 H         1 SUB1        0.192
     30 H82        43.7830   -5.5920   23.8100 H         1 SUB1        0.192
     31 H91        45.0030   -2.2290   23.7470 H         1 SUB1        0.192
     32 H92        44.7560   -3.6130   22.7800 H         1 SUB1        0.192
     33 H101       44.1250   -0.2970   29.8230 H         1 SUB1        0.223
     34 H111       42.9920   -4.2180   29.8350 H         1 SUB1        0.029
     35 H141       42.8220   -4.0990   31.8930 H         1 SUB1        0.050
     36 H151       42.4910   -3.8730   34.3270 H         1 SUB1        0.050
     37 H161       42.7590   -1.7200   35.4170 H         1 SUB1        0.051
     38 H221       43.0120    0.2030   36.1930 H         1 SUB1        0.064
     39 H231       45.3040   -0.0720   36.5950 H         1 SUB1        0.029
     40 H232       45.6940    0.4800   34.9770 H         1 SUB1        0.029
     41 H241       46.2230    2.5800   35.7330 H         1 SUB1        0.027
     42 H242       46.1570    1.8800   37.3350 H         1 SUB1        0.027
     43 H251       44.5090    3.8950   36.6640 H         1 SUB1        0.027
     44 H252       44.0430    2.6280   37.7930 H         1 SUB1        0.027
     45 H211       43.3760    2.8930   34.8780 H         1 SUB1        0.029
     46 H212       42.2930    2.4480   36.2080 H         1 SUB1        0.029
     47 H201       44.5326    0.7512   31.8923 H         1 SUB1        0.246
@<TRIPOS>BOND
     1    1    2 ar 
     2    6    1 ar 
     3    1    7 1  
     4    3    2 ar 
     5    2   26 1  
     6    4    3 ar 
     7    3   27 1  
     8    5    4 ar 
     9   10    4 1  
    10    5    6 ar 
    11   11    5 1  
    12    6   28 1  
    13    7    8 1  
    14    7    9 1  
    15    8   29 1  
    16    8   30 1  
    17    9   31 1  
    18    9   32 1  
    19   12   10 1  
    20   10   33 1  
    21   12   11 2  
    22   11   34 1  
    23   13   12 1  
    24   13   14 ar 
    25   19   13 ar 
    26   15   14 ar 
    27   14   35 1  
    28   16   15 ar 
    29   15   36 1  
    30   17   16 ar 
    31   16   37 1  
    32   18   17 1  
    33   17   19 ar 
    34   22   18 1  
    35   19   20 1  
    36   23   22 1  
    37   22   38 1  
    38   24   23 1  
    39   23   39 1  
    40   23   40 1  
    41   25   24 1  
    42   24   41 1  
    43   24   42 1  
    44   25   43 1  
    45   25   44 1  
    46   21   46 1  
    47   21   45 1  
    48   25   21 1  
    49   22   21 1  
    50   20   47 1  
@<TRIPOS>SUBSTRUCTURE
     1 SUB1        1 GROUP

