### 
### Created by X-TOOL on Mon Oct 24 22:50:14 2005
### 

@<TRIPOS>MOLECULE
1z71_ligand
   55    57     1     0     0
SMALL
GAST_HUCK


@<TRIPOS>ATOM
      1 C8         20.0150  -14.4520   25.9800 C.ar      1 SUB1        0.081
      2 C2         20.0080  -15.8630   25.6670 C.ar      1 SUB1        0.194
      3 N1         21.1590  -16.4500   25.0960 N.ar      1 SUB1       -0.111
      4 C4         22.3270  -15.7730   24.7830 C.ar      1 SUB1        0.152
      5 C5         22.3750  -14.3660   25.0730 C.ar      1 SUB1        0.078
      6 C6         21.2230  -13.7280   25.6780 C.ar      1 SUB1        0.075
      7 C11        18.7320  -16.6920   25.8170 C.3       1 SUB1        0.291
      8 C1         18.0480  -17.0120   24.5060 C.3       1 SUB1        0.101
      9 N18        17.5600  -15.8210   23.7490 N.pl3     1 SUB1       -0.249
     10 C21        18.2560  -15.2230   22.6700 C.ar      1 SUB1        0.235
     11 N2         17.6350  -14.1230   22.1380 N.ar      1 SUB1       -0.140
     12 C10        18.2380  -13.4140   21.1620 C.ar      1 SUB1        0.140
     13 C24        19.5230  -13.8110   20.6900 C.ar      1 SUB1        0.141
     14 C25        20.1930  -14.9530   21.2110 C.ar      1 SUB1        0.027
     15 C3         19.5470  -15.6850   22.2320 C.ar      1 SUB1        0.062
     16 O28        16.3940  -13.7880   22.6310 O.3       1 SUB1       -0.255
     17 CL2        20.2830  -12.9060   19.4560 Cl        1 SUB1        0.008
     18 C33        17.5180  -12.1950   20.6020 C.3       1 SUB1        0.102
     19 C34        16.0640  -12.5320   20.2690 C.2       1 SUB1        0.195
     20 N37        15.1880  -11.5910   20.6320 N.am      1 SUB1       -0.271
     21 O38        15.7710  -13.5730   19.6870 O.2       1 SUB1       -0.392
     22 C39        13.7570  -11.8680   20.4670 C.3       1 SUB1        0.073
     23 C40        12.9560  -11.5960   21.6780 C.ar      1 SUB1       -0.018
     24 C43        13.1500  -10.3940   22.4510 C.ar      1 SUB1       -0.044
     25 C44        12.2640  -10.1810   23.5720 C.ar      1 SUB1        0.034
     26 C45        11.2270  -11.1410   23.9240 C.ar      1 SUB1       -0.055
     27 C50        11.9040  -12.5330   22.0220 C.ar      1 SUB1       -0.058
     28 C9         11.0180  -12.3300   23.1430 C.ar      1 SUB1       -0.068
     29 F1         19.0440  -17.9000   26.3340 F         1 SUB1       -0.244
     30 F2         17.8050  -16.0930   26.6000 F         1 SUB1       -0.244
     31 CL1        12.4230   -8.7350   24.4950 Cl        1 SUB1       -0.072
     32 O1         21.1140  -17.7710   24.7870 O.3       1 SUB1       -0.177
     33 C7         13.1740  -11.0330   19.3310 C.3       1 SUB1       -0.032
     34 H11        19.1537  -13.9628   26.4203 H         1 SUB1        0.152
     35 H41        23.1719  -16.2848   24.3366 H         1 SUB1        0.148
     36 H51        23.2629  -13.7887   24.8418 H         1 SUB1        0.115
     37 H61        21.2721  -12.6705   25.9111 H         1 SUB1        0.153
     38 H81        17.1847  -17.6595   24.7192 H         1 SUB1        0.058
     39 H82        18.7637  -17.5528   23.8693 H         1 SUB1        0.058
     40 H91        16.6592  -15.4077   24.0295 H         1 SUB1        0.241
     41 H141       21.1659  -15.2511   20.8372 H         1 SUB1        0.088
     42 H151       20.0071  -16.5633   22.6700 H         1 SUB1        0.100
     43 H161       15.7568  -13.8156   21.9269 H         1 SUB1        0.274
     44 H181       18.0300  -11.8617   19.6873 H         1 SUB1        0.072
     45 H182       17.5396  -11.3879   21.3491 H         1 SUB1        0.072
     46 H201       15.5004  -10.7184   21.0074 H         1 SUB1        0.188
     47 H221       13.6504  -12.9336   20.2158 H         1 SUB1        0.072
     48 H241       13.9274   -9.6809   22.2015 H         1 SUB1        0.056
     49 H261       10.6018  -10.9559   24.7900 H         1 SUB1        0.056
     50 H271       11.7781  -13.4210   21.4131 H         1 SUB1        0.056
     51 H281       10.2340  -13.0387   23.3842 H         1 SUB1        0.060
     52 H321       20.2720  -18.1270   25.0454 H         1 SUB1        0.340
     53 H331       12.1021  -11.2560   19.2248 H         1 SUB1        0.027
     54 H332       13.6938  -11.2766   18.3927 H         1 SUB1        0.027
     55 H333       13.3056   -9.9644   19.5564 H         1 SUB1        0.027
@<TRIPOS>BOND
     1    1    2 ar 
     2    1    6 ar 
     3    2    3 ar 
     4    2    7 1  
     5    3    4 ar 
     6    3   32 1  
     7    4    5 ar 
     8    5    6 ar 
     9    7    8 1  
    10    7   29 1  
    11    7   30 1  
    12    8    9 1  
    13    9   10 1  
    14   10   11 ar 
    15   10   15 ar 
    16   11   12 ar 
    17   11   16 1  
    18   12   13 ar 
    19   12   18 1  
    20   13   14 ar 
    21   13   17 1  
    22   14   15 ar 
    23   18   19 1  
    24   19   20 am 
    25   19   21 2  
    26   20   22 1  
    27   22   23 1  
    28   22   33 1  
    29   23   24 ar 
    30   23   27 ar 
    31   24   25 ar 
    32   25   26 ar 
    33   25   31 1  
    34   26   28 ar 
    35   27   28 ar 
    36    1   34 1  
    37    4   35 1  
    38    5   36 1  
    39    6   37 1  
    40    8   38 1  
    41    8   39 1  
    42    9   40 1  
    43   14   41 1  
    44   15   42 1  
    45   16   43 1  
    46   18   44 1  
    47   18   45 1  
    48   20   46 1  
    49   22   47 1  
    50   24   48 1  
    51   26   49 1  
    52   27   50 1  
    53   28   51 1  
    54   32   52 1  
    55   33   53 1  
    56   33   54 1  
    57   33   55 1  
@<TRIPOS>SUBSTRUCTURE
     1 SUB1        1 GROUP

