### 
### Created by X-TOOL on Mon Oct 24 23:44:26 2005
### 

@<TRIPOS>MOLECULE
7cpa_ligand
   74    76     1     0     0
SMALL
GAST_HUCK


@<TRIPOS>ATOM
      1 C1         50.4520   14.0170   38.8320 C.2       1 SUB1        0.324
      2 CB1        52.4530   15.0610   39.5900 C.3       1 SUB1        0.111
      3 CG1        53.2970   16.2260   39.4890 C.ar      1 SUB1       -0.013
      4 CD11       54.2900   16.2700   38.5730 C.ar      1 SUB1       -0.058
      5 CD12       53.1230   17.2780   40.3170 C.ar      1 SUB1       -0.058
      6 CE11       55.0970   17.3480   38.4740 C.ar      1 SUB1       -0.068
      7 CE12       53.9570   18.3430   40.2510 C.ar      1 SUB1       -0.068
      8 CZ1        54.9380   18.3810   39.3240 C.ar      1 SUB1       -0.069
      9 C2         48.4850   16.2040   37.5840 C.2       1 SUB1        0.204
     10 CA2        49.3870   15.2350   36.9420 C.3       1 SUB1        0.142
     11 CB2        48.9550   14.5660   35.5970 C.3       1 SUB1        0.021
     12 CG2        50.0130   13.8520   34.9140 C.ar      1 SUB1       -0.039
     13 CD21       50.0950   12.5020   34.9800 C.ar      1 SUB1       -0.060
     14 CD22       50.9490   14.5400   34.2240 C.ar      1 SUB1       -0.060
     15 CE21       51.1000   11.8490   34.3540 C.ar      1 SUB1       -0.069
     16 CE22       51.9640   13.8890   33.6110 C.ar      1 SUB1       -0.069
     17 CZ2        52.0350   12.5410   33.6680 C.ar      1 SUB1       -0.069
     18 CA3        48.1640   18.5170   38.1860 C.3       1 SUB1        0.100
     19 CB3        49.2950   19.1450   39.1790 C.3       1 SUB1       -0.018
     20 CG31       50.4830   19.6330   38.3730 C.3       1 SUB1       -0.060
     21 CG32       49.7240   17.9690   40.0920 C.3       1 SUB1       -0.060
     22 C4         47.7100   19.6540   33.7850 C.2       1 SUB1        0.063
     23 CA4        48.0680   20.6970   34.7510 C.3       1 SUB1        0.125
     24 CB4        49.0220   21.6400   34.0230 C.3       1 SUB1        0.023
     25 CG4        48.5830   22.3320   32.8510 C.ar      1 SUB1       -0.037
     26 CD41       47.8680   23.4720   32.9580 C.ar      1 SUB1       -0.060
     27 CD42       48.8680   21.8260   31.6320 C.ar      1 SUB1       -0.060
     28 CE41       47.4560   24.1150   31.8440 C.ar      1 SUB1       -0.069
     29 CE42       48.4400   22.4590   30.5200 C.ar      1 SUB1       -0.069
     30 CZ4        47.7330   23.6040   30.6250 C.ar      1 SUB1       -0.069
     31 O1         50.5660   13.0150   39.5110 O.2       1 SUB1       -0.377
     32 OA1        51.1200   15.1080   39.1360 O.3       1 SUB1       -0.250
     33 O2         47.5610   15.9270   38.2770 O.2       1 SUB1       -0.394
     34 OP31       46.3340   18.6230   36.2450 O.co2     1 SUB1       -0.543
     35 OP32       46.8510   20.7440   37.7920 O.co2     1 SUB1       -0.543
     36 OP33       48.5740   20.1600   35.9900 O.3       1 SUB1       -0.308
     37 O41        48.5170   18.7790   33.8180 O.co2     1 SUB1       -0.563
     38 O42        46.6550   19.5700   33.0140 O.co2     1 SUB1       -0.563
     39 N2         49.6990   14.0610   37.6930 N.am      1 SUB1       -0.239
     40 N3         48.8200   17.5150   37.4010 N.am      1 SUB1       -0.276
     41 P3         47.3970   19.5450   37.0120 P.3       1 SUB1        0.154
     42 H21        52.4148   14.7896   40.6553 H         1 SUB1        0.078
     43 H22        52.9514   14.2595   39.0250 H         1 SUB1        0.078
     44 H41        54.4407   15.4273   37.9080 H         1 SUB1        0.056
     45 H51        52.3129   17.2702   41.0372 H         1 SUB1        0.056
     46 H61        55.8693   17.3821   37.7141 H         1 SUB1        0.060
     47 H71        53.8366   19.1674   40.9445 H         1 SUB1        0.060
     48 H81        55.5959   19.2404   39.2639 H         1 SUB1        0.056
     49 H101       50.3172   15.7936   36.7611 H         1 SUB1        0.082
     50 H111       48.5832   15.3538   34.9254 H         1 SUB1        0.047
     51 H112       48.1440   13.8547   35.8121 H         1 SUB1        0.047
     52 H131       49.3520   11.9426   35.5369 H         1 SUB1        0.056
     53 H141       50.8862   15.6204   34.1613 H         1 SUB1        0.056
     54 H151       51.1553   10.7675   34.4029 H         1 SUB1        0.060
     55 H161       52.7208   14.4491   33.0738 H         1 SUB1        0.060
     56 H171       52.8395   12.0169   33.1649 H         1 SUB1        0.056
     57 H181       47.3794   18.0692   38.8136 H         1 SUB1        0.062
     58 H191       48.8798   19.9725   39.7730 H         1 SUB1        0.032
     59 H201       51.2388   20.0541   39.0523 H         1 SUB1        0.023
     60 H202       50.1529   20.4083   37.6660 H         1 SUB1        0.023
     61 H203       50.9192   18.7906   37.8161 H         1 SUB1        0.023
     62 H211       48.8573   17.6209   40.6730 H         1 SUB1        0.023
     63 H212       50.5138   18.3072   40.7788 H         1 SUB1        0.023
     64 H213       50.1054   17.1440   39.4724 H         1 SUB1        0.023
     65 H231       47.1588   21.2632   35.0016 H         1 SUB1        0.089
     66 H241       49.8981   21.0427   33.7304 H         1 SUB1        0.049
     67 H242       49.3273   22.4072   34.7498 H         1 SUB1        0.049
     68 H261       47.6249   23.8707   33.9363 H         1 SUB1        0.056
     69 H271       49.4414   20.9100   31.5467 H         1 SUB1        0.056
     70 H281       46.9020   25.0429   31.9285 H         1 SUB1        0.060
     71 H291       48.6639   22.0480   29.5422 H         1 SUB1        0.060
     72 H301       47.3880   24.1127   29.7321 H         1 SUB1        0.056
     73 H391       49.3336   13.1937   37.3549 H         1 SUB1        0.190
     74 H401       49.5138   17.7718   36.7282 H         1 SUB1        0.186
@<TRIPOS>BOND
     1    1   31 2  
     2    1   32 1  
     3   39    1 am 
     4    2    3 1  
     5   32    2 1  
     6    3    4 ar 
     7    3    5 ar 
     8    4    6 ar 
     9    5    7 ar 
    10    6    8 ar 
    11    7    8 ar 
    12    9   10 1  
    13   10   11 1  
    14   10   39 1  
    15   11   12 1  
    16   12   13 ar 
    17   12   14 ar 
    18   13   15 ar 
    19   14   16 ar 
    20   15   17 ar 
    21   16   17 ar 
    22   18   19 1  
    23   19   20 1  
    24   19   21 1  
    25   23   22 1  
    26   23   24 1  
    27   24   25 1  
    28   25   26 ar 
    29   25   27 ar 
    30   26   28 ar 
    31   27   29 ar 
    32   28   30 ar 
    33   29   30 ar 
    34   36   41 1  
    35   41   35 2  
    36   41   34 2  
    37   41   18 1  
    38   18   40 1  
    39   40    9 am 
    40   22   38 2  
    41   22   37 2  
    42   36   23 1  
    43    9   33 2  
    44    2   42 1  
    45    2   43 1  
    46    4   44 1  
    47    5   45 1  
    48    6   46 1  
    49    7   47 1  
    50    8   48 1  
    51   10   49 1  
    52   11   50 1  
    53   11   51 1  
    54   13   52 1  
    55   14   53 1  
    56   15   54 1  
    57   16   55 1  
    58   17   56 1  
    59   18   57 1  
    60   19   58 1  
    61   20   59 1  
    62   20   60 1  
    63   20   61 1  
    64   21   62 1  
    65   21   63 1  
    66   21   64 1  
    67   23   65 1  
    68   24   66 1  
    69   24   67 1  
    70   26   68 1  
    71   27   69 1  
    72   28   70 1  
    73   29   71 1  
    74   30   72 1  
    75   39   73 1  
    76   40   74 1  
@<TRIPOS>SUBSTRUCTURE
     1 SUB1        1 GROUP

