7cpa_ligand
  -I-interpret- 

 74 76  0  0  0  0  0  0  0  0999 V2000
   50.4520   14.0170   38.8320 C   0  0  0  0  0
   52.4530   15.0610   39.5900 C   0  0  0  0  0
   53.2970   16.2260   39.4890 C   0  0  0  0  0
   54.2900   16.2700   38.5730 C   0  0  0  0  0
   53.1230   17.2780   40.3170 C   0  0  0  0  0
   55.0970   17.3480   38.4740 C   0  0  0  0  0
   53.9570   18.3430   40.2510 C   0  0  0  0  0
   54.9380   18.3810   39.3240 C   0  0  0  0  0
   48.4850   16.2040   37.5840 C   0  0  0  0  0
   49.3870   15.2350   36.9420 C   0  0  0  0  0
   48.9550   14.5660   35.5970 C   0  0  0  0  0
   50.0130   13.8520   34.9140 C   0  0  0  0  0
   50.0950   12.5020   34.9800 C   0  0  0  0  0
   50.9490   14.5400   34.2240 C   0  0  0  0  0
   51.1000   11.8490   34.3540 C   0  0  0  0  0
   51.9640   13.8890   33.6110 C   0  0  0  0  0
   52.0350   12.5410   33.6680 C   0  0  0  0  0
   48.1640   18.5170   38.1860 C   0  0  0  0  0
   49.2950   19.1450   39.1790 C   0  0  0  0  0
   50.4830   19.6330   38.3730 C   0  0  0  0  0
   49.7240   17.9690   40.0920 C   0  0  0  0  0
   47.7100   19.6540   33.7850 C   0  0  0  0  0
   48.0680   20.6970   34.7510 C   0  0  0  0  0
   49.0220   21.6400   34.0230 C   0  0  0  0  0
   48.5830   22.3320   32.8510 C   0  0  0  0  0
   47.8680   23.4720   32.9580 C   0  0  0  0  0
   48.8680   21.8260   31.6320 C   0  0  0  0  0
   47.4560   24.1150   31.8440 C   0  0  0  0  0
   48.4400   22.4590   30.5200 C   0  0  0  0  0
   47.7330   23.6040   30.6250 C   0  0  0  0  0
   50.5660   13.0150   39.5110 O   0  0  0  0  0
   51.1200   15.1080   39.1360 O   0  0  0  0  0
   47.5610   15.9270   38.2770 O   0  0  0  0  0
   46.3340   18.6230   36.2450 O   0  5  0  0  0
   46.8510   20.7440   37.7920 O   0  0  0  0  0
   48.5740   20.1600   35.9900 O   0  0  0  0  0
   48.5170   18.7790   33.8180 O   0  0  0  0  0
   46.6550   19.5700   33.0140 O   0  5  0  0  0
   49.6990   14.0610   37.6930 N   0  0  0  0  0
   48.8200   17.5150   37.4010 N   0  0  0  0  0
   47.3970   19.5450   37.0120 P   0  0  0  0  0
   52.4148   14.7896   40.6553 H   0  0  0  0  0
   52.9514   14.2595   39.0250 H   0  0  0  0  0
   54.4407   15.4273   37.9080 H   0  0  0  0  0
   52.3129   17.2702   41.0372 H   0  0  0  0  0
   55.8693   17.3821   37.7141 H   0  0  0  0  0
   53.8366   19.1674   40.9445 H   0  0  0  0  0
   55.5959   19.2404   39.2639 H   0  0  0  0  0
   50.3172   15.7936   36.7611 H   0  0  0  0  0
   48.5832   15.3538   34.9254 H   0  0  0  0  0
   48.1440   13.8547   35.8121 H   0  0  0  0  0
   49.3520   11.9426   35.5369 H   0  0  0  0  0
   50.8862   15.6204   34.1613 H   0  0  0  0  0
   51.1553   10.7675   34.4029 H   0  0  0  0  0
   52.7208   14.4491   33.0738 H   0  0  0  0  0
   52.8395   12.0169   33.1649 H   0  0  0  0  0
   47.3794   18.0692   38.8136 H   0  0  0  0  0
   48.8798   19.9725   39.7730 H   0  0  0  0  0
   51.2388   20.0541   39.0523 H   0  0  0  0  0
   50.1529   20.4083   37.6660 H   0  0  0  0  0
   50.9192   18.7906   37.8161 H   0  0  0  0  0
   48.8573   17.6209   40.6730 H   0  0  0  0  0
   50.5138   18.3072   40.7788 H   0  0  0  0  0
   50.1054   17.1440   39.4724 H   0  0  0  0  0
   47.1588   21.2632   35.0016 H   0  0  0  0  0
   49.8981   21.0427   33.7304 H   0  0  0  0  0
   49.3273   22.4072   34.7498 H   0  0  0  0  0
   47.6249   23.8707   33.9363 H   0  0  0  0  0
   49.4414   20.9100   31.5467 H   0  0  0  0  0
   46.9020   25.0429   31.9285 H   0  0  0  0  0
   48.6639   22.0480   29.5422 H   0  0  0  0  0
   47.3880   24.1127   29.7321 H   0  0  0  0  0
   49.3336   13.1937   37.3549 H   0  0  0  0  0
   49.5138   17.7718   36.7282 H   0  0  0  0  0
  1 31  2  0  0  0
  1 32  1  0  0  0
 39  1  1  0  0  0
  2  3  1  0  0  0
 32  2  1  0  0  0
  3  4  4  0  0  0
  3  5  4  0  0  0
  4  6  4  0  0  0
  5  7  4  0  0  0
  6  8  4  0  0  0
  7  8  4  0  0  0
  9 10  1  0  0  0
 10 11  1  0  0  0
 10 39  1  0  0  0
 11 12  1  0  0  0
 12 13  4  0  0  0
 12 14  4  0  0  0
 13 15  4  0  0  0
 14 16  4  0  0  0
 15 17  4  0  0  0
 16 17  4  0  0  0
 18 19  1  0  0  0
 19 20  1  0  0  0
 19 21  1  0  0  0
 23 22  1  0  0  0
 23 24  1  0  0  0
 24 25  1  0  0  0
 25 26  4  0  0  0
 25 27  4  0  0  0
 26 28  4  0  0  0
 27 29  4  0  0  0
 28 30  4  0  0  0
 29 30  4  0  0  0
 36 41  1  0  0  0
 41 35  2  0  0  0
 41 34  1  0  0  0
 41 18  1  0  0  0
 18 40  1  0  0  0
 40  9  1  0  0  0
 22 38  1  0  0  0
 22 37  2  0  0  0
 36 23  1  0  0  0
  9 33  2  0  0  0
  2 42  1  0  0  0
  2 43  1  0  0  0
  4 44  1  0  0  0
  5 45  1  0  0  0
  6 46  1  0  0  0
  7 47  1  0  0  0
  8 48  1  0  0  0
 10 49  1  0  0  0
 11 50  1  0  0  0
 11 51  1  0  0  0
 13 52  1  0  0  0
 14 53  1  0  0  0
 15 54  1  0  0  0
 16 55  1  0  0  0
 17 56  1  0  0  0
 18 57  1  0  0  0
 19 58  1  0  0  0
 20 59  1  0  0  0
 20 60  1  0  0  0
 20 61  1  0  0  0
 21 62  1  0  0  0
 21 63  1  0  0  0
 21 64  1  0  0  0
 23 65  1  0  0  0
 24 66  1  0  0  0
 24 67  1  0  0  0
 26 68  1  0  0  0
 27 69  1  0  0  0
 28 70  1  0  0  0
 29 71  1  0  0  0
 30 72  1  0  0  0
 39 73  1  0  0  0
 40 74  1  0  0  0
M  END
$$$$
