1gyx_ligand
  -I-interpret- 

 14 14  0  0  0  0  0  0  0  0999 V2000
   11.3000    4.4720   23.3280 C   0  0  0  0  0
   10.9970    4.2850   22.1630 O   0  0  0  0  0
   10.8480    5.5550   23.9370 O   0  5  0  0  0
   12.1110    3.4730   24.0570 C   0  0  0  0  0
   12.7670    3.7760   25.2500 C   0  0  0  0  0
   13.5420    2.8200   25.9060 C   0  0  0  0  0
   13.6550    1.5650   25.3410 C   0  0  0  0  0
   13.0260    1.2680   24.1570 C   0  0  0  0  0
   12.2490    2.2020   23.4850 C   0  0  0  0  0
   12.6730    4.7694   25.6736 H   0  0  0  0  0
   14.0438    3.0564   26.8373 H   0  0  0  0  0
   14.2473    0.8053   25.8381 H   0  0  0  0  0
   13.1394    0.2760   23.7350 H   0  0  0  0  0
   11.7645    1.9553   22.5472 H   0  0  0  0  0
  1  4  1  0  0  0
  1  3  1  0  0  0
  1  2  2  0  0  0
  4  9  4  0  0  0
  4  5  4  0  0  0
  5  6  4  0  0  0
  6  7  4  0  0  0
  7  8  4  0  0  0
  8  9  4  0  0  0
  5 10  1  0  0  0
  6 11  1  0  0  0
  7 12  1  0  0  0
  8 13  1  0  0  0
  9 14  1  0  0  0
M  END
$$$$
