1if8_ligand
  -I-interpret- 

 47 49  0  0  0  0  0  0  0  0999 V2000
   -0.5353    7.7962   11.5981 H   0  0  0  0  0
   -1.3669    9.0003   12.6398 H   0  0  0  0  0
   -0.6930    8.1310   12.6340 C   0  0  0  0  0
   -1.3240    6.9590   13.4850 C   0  0  0  0  0
   -2.6530    6.4880   12.8880 C   0  0  0  0  0
   -2.9960    5.1670   13.5830 N   0  0  0  0  0
   -4.3520    5.1130   14.1120 C   0  0  0  0  0
   -5.0820    6.0970   13.9510 O   0  0  0  0  0
   -4.7640    3.9310   14.7890 C   0  0  0  0  0
   -3.8710    2.8290   14.9440 C   0  0  0  0  0
   -4.2720    1.6380   15.6340 C   0  0  0  0  0
   -5.6040    1.5140   16.2020 C   0  0  0  0  0
   -6.4850    2.6340   16.0310 C   0  0  0  0  0
   -6.0760    3.8090   15.3410 C   0  0  0  0  0
   -6.1150    0.2340   17.0070 S   0  0  0  0  0
   -5.5220    0.2440   18.3340 O   0  0  0  0  0
   -7.5440    0.3170   17.1290 O   0  0  0  0  0
   -5.8280   -1.1030   16.2890 N   0  0  0  0  0
    0.6010    8.4970   13.2440 N   0  0  0  0  0
    1.8200    7.8620   12.9560 C   0  0  0  0  0
    2.8840    8.5310   13.7870 C   0  0  0  0  0
    0.8390    9.4810   14.1640 C   0  0  0  0  0
   -0.0670   10.4270   14.7940 C   0  0  0  0  0
    0.4230   11.3670   15.7480 C   0  0  0  0  0
    1.8280   11.3810   16.0910 C   0  0  0  0  0
    2.7420   10.4390   15.4590 C   0  0  0  0  0
    2.2370    9.4860   14.4890 C   0  0  0  0  0
   -1.6060    7.4340   14.9370 C   0  0  0  0  0
   -0.6163    6.1171   13.5054 H   0  0  0  0  0
   -2.5489    6.3316   11.8042 H   0  0  0  0  0
   -3.4401    7.2328   13.0771 H   0  0  0  0  0
   -2.3477    4.4101   13.6661 H   0  0  0  0  0
   -2.8703    2.8935   14.5322 H   0  0  0  0  0
   -3.5709    0.8173   15.7336 H   0  0  0  0  0
   -7.4883    2.5833   16.4382 H   0  0  0  0  0
   -6.7754    4.6299   15.2317 H   0  0  0  0  0
   -6.1102   -1.9732   16.7124 H   0  0  0  0  0
    1.9689    7.0377   12.2601 H   0  0  0  0  0
    3.9467    8.2950   13.8154 H   0  0  0  0  0
   -1.1202   10.4180   14.5375 H   0  0  0  0  0
   -0.2568   12.0702   16.2155 H   0  0  0  0  0
    2.2010   12.0927   16.8186 H   0  0  0  0  0
    3.7958   10.4502   15.7127 H   0  0  0  0  0
   -0.6692    7.7806   15.3978 H   0  0  0  0  0
   -2.0157    6.5982   15.5232 H   0  0  0  0  0
   -2.3327    8.2596   14.9181 H   0  0  0  0  0
   -5.3622   -1.1054   15.4041 H   0  0  0  0  0
  3 19  1  0  0  0
  3  4  1  0  0  0
  4 28  1  0  0  0
  4  5  1  0  0  0
  5  6  1  0  0  0
  6  7  1  0  0  0
  7  9  1  0  0  0
  7  8  2  0  0  0
  9 14  4  0  0  0
  9 10  4  0  0  0
 10 11  4  0  0  0
 11 12  4  0  0  0
 12 15  1  0  0  0
 12 13  4  0  0  0
 13 14  4  0  0  0
 15 18  1  0  0  0
 15 17  2  0  0  0
 15 16  2  0  0  0
 19 22  1  0  0  0
 19 20  1  0  0  0
 20 21  2  0  0  0
 21 27  1  0  0  0
 27 26  4  0  0  0
 27 22  4  0  0  0
 22 23  4  0  0  0
 23 24  4  0  0  0
 24 25  4  0  0  0
 25 26  4  0  0  0
  3  1  1  0  0  0
  3  2  1  0  0  0
  4 29  1  0  0  0
  5 30  1  0  0  0
  5 31  1  0  0  0
  6 32  1  0  0  0
 10 33  1  0  0  0
 11 34  1  0  0  0
 13 35  1  0  0  0
 14 36  1  0  0  0
 18 37  1  0  0  0
 20 38  1  0  0  0
 21 39  1  0  0  0
 23 40  1  0  0  0
 24 41  1  0  0  0
 25 42  1  0  0  0
 26 43  1  0  0  0
 28 44  1  0  0  0
 28 45  1  0  0  0
 28 46  1  0  0  0
 18 47  1  0  0  0
M  END
$$$$
