### 
### Created by X-TOOL on Mon Oct 24 23:21:30 2005
### 

@<TRIPOS>MOLECULE
1if8_ligand
   47    49     1     0     0
SMALL
GAST_HUCK


@<TRIPOS>ATOM
      1 H31        -0.5353    7.7962   11.5981 H         1 SUB1        0.060
      2 H32        -1.3669    9.0003   12.6398 H         1 SUB1        0.060
      3 C01        -0.6930    8.1310   12.6340 C.3       1 SUB1        0.056
      4 C02        -1.3240    6.9590   13.4850 C.3       1 SUB1        0.003
      5 C03        -2.6530    6.4880   12.8880 C.3       1 SUB1        0.035
      6 N04        -2.9960    5.1670   13.5830 N.am      1 SUB1       -0.286
      7 C05        -4.3520    5.1130   14.1120 C.2       1 SUB1        0.205
      8 O06        -5.0820    6.0970   13.9510 O.2       1 SUB1       -0.385
      9 C07        -4.7640    3.9310   14.7890 C.ar      1 SUB1        0.050
     10 C08        -3.8710    2.8290   14.9440 C.ar      1 SUB1       -0.040
     11 C09        -4.2720    1.6380   15.6340 C.ar      1 SUB1       -0.030
     12 C10        -5.6040    1.5140   16.2020 C.ar      1 SUB1        0.112
     13 C11        -6.4850    2.6340   16.0310 C.ar      1 SUB1       -0.030
     14 C12        -6.0760    3.8090   15.3410 C.ar      1 SUB1       -0.040
     15 S13        -6.1150    0.2340   17.0070 S.o2      1 SUB1        0.068
     16 O14        -5.5220    0.2440   18.3340 O.2       1 SUB1       -0.150
     17 O15        -7.5440    0.3170   17.1290 O.2       1 SUB1       -0.150
     18 NP6        -5.8280   -1.1030   16.2890 N.am      1 SUB1       -0.261
     19 NP7         0.6010    8.4970   13.2440 N.pl3     1 SUB1       -0.265
     20 C18         1.8200    7.8620   12.9560 C.2       1 SUB1        0.024
     21 C19         2.8840    8.5310   13.7870 C.2       1 SUB1       -0.064
     22 C20         0.8390    9.4810   14.1640 C.ar      1 SUB1        0.066
     23 C21        -0.0670   10.4270   14.7940 C.ar      1 SUB1       -0.043
     24 C22         0.4230   11.3670   15.7480 C.ar      1 SUB1       -0.076
     25 C23         1.8280   11.3810   16.0910 C.ar      1 SUB1       -0.079
     26 C24         2.7420   10.4390   15.4590 C.ar      1 SUB1       -0.075
     27 C25         2.2370    9.4860   14.4890 C.ar      1 SUB1       -0.028
     28 C26        -1.6060    7.4340   14.9370 C.3       1 SUB1       -0.058
     29 H41        -0.6163    6.1171   13.5054 H         1 SUB1        0.034
     30 H51        -2.5489    6.3316   11.8042 H         1 SUB1        0.052
     31 H52        -3.4401    7.2328   13.0771 H         1 SUB1        0.052
     32 H61        -2.3477    4.4101   13.6661 H         1 SUB1        0.184
     33 H101       -2.8703    2.8935   14.5322 H         1 SUB1        0.067
     34 H111       -3.5709    0.8173   15.7336 H         1 SUB1        0.065
     35 H131       -7.4883    2.5833   16.4382 H         1 SUB1        0.065
     36 H141       -6.7754    4.6299   15.2317 H         1 SUB1        0.067
     37 H181       -6.1102   -1.9732   16.7124 H         1 SUB1        0.163
     38 H201        1.9689    7.0377   12.2601 H         1 SUB1        0.093
     39 H211        3.9467    8.2950   13.8154 H         1 SUB1        0.029
     40 H231       -1.1202   10.4180   14.5375 H         1 SUB1        0.054
     41 H241       -0.2568   12.0702   16.2155 H         1 SUB1        0.053
     42 H251        2.2010   12.0927   16.8186 H         1 SUB1        0.052
     43 H261        3.7958   10.4502   15.7127 H         1 SUB1        0.054
     44 H281       -0.6692    7.7806   15.3978 H         1 SUB1        0.023
     45 H282       -2.0157    6.5982   15.5232 H         1 SUB1        0.023
     46 H283       -2.3327    8.2596   14.9181 H         1 SUB1        0.023
     47 H182       -5.3622   -1.1054   15.4041 H         1 SUB1        0.163
@<TRIPOS>BOND
     1    3   19 1  
     2    3    4 1  
     3    4   28 1  
     4    4    5 1  
     5    5    6 1  
     6    6    7 am 
     7    7    9 1  
     8    7    8 2  
     9    9   14 ar 
    10    9   10 ar 
    11   10   11 ar 
    12   11   12 ar 
    13   12   15 1  
    14   12   13 ar 
    15   13   14 ar 
    16   15   18 1  
    17   15   17 2  
    18   15   16 2  
    19   19   22 1  
    20   19   20 1  
    21   20   21 2  
    22   21   27 1  
    23   27   26 ar 
    24   27   22 ar 
    25   22   23 ar 
    26   23   24 ar 
    27   24   25 ar 
    28   25   26 ar 
    29    3    1 1  
    30    3    2 1  
    31    4   29 1  
    32    5   30 1  
    33    5   31 1  
    34    6   32 1  
    35   10   33 1  
    36   11   34 1  
    37   13   35 1  
    38   14   36 1  
    39   18   37 1  
    40   20   38 1  
    41   21   39 1  
    42   23   40 1  
    43   24   41 1  
    44   25   42 1  
    45   26   43 1  
    46   28   44 1  
    47   28   45 1  
    48   28   46 1  
    49   18   47 1  
@<TRIPOS>SUBSTRUCTURE
     1 SUB1        1 GROUP

