### 
### Created by X-TOOL on Mon Oct 24 22:19:45 2005
### 

@<TRIPOS>MOLECULE
1v2o_ligand
   55    56     1     0     0
SMALL
GAST_HUCK


@<TRIPOS>ATOM
      1 N12        -2.1790   19.1130   17.6980 N.am      1 SUB1       -0.261
      2 C13        -3.3420   18.3880   18.2850 C.3       1 SUB1        0.152
      3 C30        -2.8130   17.4120   19.3340 C.3       1 SUB1        0.023
      4 C14        -4.5090   19.2760   18.9340 C.2       1 SUB1        0.261
      5 O17        -5.6930   19.0020   18.6310 O.2       1 SUB1       -0.368
      6 O15        -4.1720   20.3490   19.8350 O.3       1 SUB1       -0.278
      7 C16        -2.8160   20.7550   20.2600 C.3       1 SUB1        0.066
      8 C21        -1.9910   16.2300   18.8300 C.ar      1 SUB1       -0.034
      9 C22        -0.8850   15.8000   19.6050 C.ar      1 SUB1       -0.060
     10 C23        -0.0860   14.7030   19.1910 C.ar      1 SUB1       -0.064
     11 C24        -0.3960   14.0230   17.9840 C.ar      1 SUB1       -0.014
     12 C25        -1.5210   14.4150   17.1370 C.ar      1 SUB1        0.179
     13 C26        -2.3140   15.5400   17.5950 C.ar      1 SUB1       -0.005
     14 C27        -1.8010   13.7190   15.9460 C.cat     1 SUB1        0.315
     15 N28        -2.3870   14.2310   14.8820 N.pl3     1 SUB1       -0.200
     16 N29        -1.5040   12.4400   15.7460 N.pl3     1 SUB1       -0.200
     17 C11        -2.2490   20.0390   16.7340 C.2       1 SUB1        0.197
     18 C10        -0.9820   20.8100   16.4300 C.3       1 SUB1        0.116
     19 N9         -0.9290   21.3530   15.0530 N.am      1 SUB1       -0.229
     20 O20        -3.2690   20.2760   16.0910 O.2       1 SUB1       -0.395
     21 C1          3.1150   25.4620   18.6410 C.3       1 SUB1       -0.031
     22 C2          2.1860   24.8390   17.6670 C.ar      1 SUB1       -0.046
     23 C3          2.6600   24.0330   16.5760 C.ar      1 SUB1       -0.059
     24 C4          1.7200   23.4480   15.6620 C.ar      1 SUB1       -0.042
     25 C5          0.3170   23.6990   15.8760 C.ar      1 SUB1        0.101
     26 C6         -0.1430   24.5010   16.9570 C.ar      1 SUB1       -0.042
     27 C7          0.7910   25.0640   17.8440 C.ar      1 SUB1       -0.059
     28 S8         -0.8880   23.0200   14.8220 S.o2      1 SUB1        0.067
     29 O18        -0.5890   23.2410   13.2730 O.2       1 SUB1       -0.151
     30 O19        -2.3170   23.4660   15.2990 O.2       1 SUB1       -0.151
     31 H11        -1.2717   18.8890   18.0539 H         1 SUB1        0.189
     32 H21        -3.8018   17.8094   17.4702 H         1 SUB1        0.084
     33 H31        -3.6797   17.0059   19.8761 H         1 SUB1        0.047
     34 H32        -2.1804   17.9833   20.0293 H         1 SUB1        0.047
     35 H71        -2.8884   21.6069   20.9521 H         1 SUB1        0.058
     36 H72        -2.2277   21.0481   19.3780 H         1 SUB1        0.058
     37 H73        -2.3227   19.9122   20.7663 H         1 SUB1        0.058
     38 H91        -0.6460   16.3167   20.5275 H         1 SUB1        0.056
     39 H101        0.7573   14.3856   19.7936 H         1 SUB1        0.060
     40 H111        0.2218   13.1856   17.6805 H         1 SUB1        0.061
     41 H131       -3.1614   15.8705   17.0053 H         1 SUB1        0.060
     42 H151       -2.5518   13.6436   14.0521 H         1 SUB1        0.192
     43 H152       -2.6801   15.2184   14.8805 H         1 SUB1        0.192
     44 H161       -1.0402   11.8969   16.4881 H         1 SUB1        0.192
     45 H162       -1.7375   11.9913   14.8488 H         1 SUB1        0.192
     46 H181       -0.1238   20.1364   16.5705 H         1 SUB1        0.072
     47 H182       -0.9087   21.6495   17.1369 H         1 SUB1        0.072
     48 H191       -0.9177   20.7346   14.2672 H         1 SUB1        0.170
     49 H211        4.1508   25.2017   18.3778 H         1 SUB1        0.039
     50 H212        2.8893   25.0913   19.6518 H         1 SUB1        0.039
     51 H213        2.9939   26.5550   18.6157 H         1 SUB1        0.039
     52 H231        3.7230   23.8673   16.4436 H         1 SUB1        0.056
     53 H241        2.0562   22.8345   14.8339 H         1 SUB1        0.062
     54 H261       -1.2037   24.6764   17.0955 H         1 SUB1        0.062
     55 H271        0.4462   25.6750   18.6703 H         1 SUB1        0.056
@<TRIPOS>BOND
     1    1    2 1  
     2   17    1 am 
     3    2    3 1  
     4    2    4 1  
     5    3    8 1  
     6    4    5 2  
     7    4    6 1  
     8    6    7 1  
     9    8    9 ar 
    10    8   13 ar 
    11    9   10 ar 
    12   10   11 ar 
    13   12   11 ar 
    14   13   12 ar 
    15   12   14 1  
    16   14   15 1  
    17   14   16 1  
    18   18   17 1  
    19   17   20 2  
    20   19   18 1  
    21   28   19 am 
    22   22   21 1  
    23   23   22 ar 
    24   22   27 ar 
    25   24   23 ar 
    26   25   24 ar 
    27   25   26 ar 
    28   25   28 1  
    29   26   27 ar 
    30   28   29 2  
    31   28   30 2  
    32    1   31 1  
    33    2   32 1  
    34    3   33 1  
    35    3   34 1  
    36    7   35 1  
    37    7   36 1  
    38    7   37 1  
    39    9   38 1  
    40   10   39 1  
    41   11   40 1  
    42   13   41 1  
    43   15   42 1  
    44   15   43 1  
    45   16   44 1  
    46   16   45 1  
    47   18   46 1  
    48   18   47 1  
    49   19   48 1  
    50   21   49 1  
    51   21   50 1  
    52   21   51 1  
    53   23   52 1  
    54   24   53 1  
    55   26   54 1  
    56   27   55 1  
@<TRIPOS>SUBSTRUCTURE
     1 SUB1        1 GROUP

