### 
### Created by X-TOOL on Mon Oct 24 22:35:31 2005
### 

@<TRIPOS>MOLECULE
1c1u_ligand
   37    40     1     0     0
SMALL
GAST_HUCK


@<TRIPOS>ATOM
      1 H171       11.7905   -9.7006   22.7729 H         1 SUB1        0.056
      2 H181       13.5938   -9.7130   21.0446 H         1 SUB1        0.054
      3 H211       12.0162  -14.0054   23.0878 H         1 SUB1        0.059
      4 H241       15.6119  -15.3436   19.4573 H         1 SUB1        0.079
      5 H242       16.9035  -14.2140   19.9889 H         1 SUB1        0.079
      6 H251        9.4131  -12.9388   25.0207 H         1 SUB1        0.192
      7 H252       10.3463  -13.7939   23.7635 H         1 SUB1        0.192
      8 H261       11.1180   -9.8751   24.4750 H         1 SUB1        0.192
      9 H262        9.8636  -10.7001   25.4386 H         1 SUB1        0.192
     10 H281       13.9185  -14.9782   21.4165 H         1 SUB1        0.232
     11 H291       17.3663  -10.6899   13.7325 H         1 SUB1        0.052
     12 H301       16.4643  -12.7437   12.6580 H         1 SUB1        0.053
     13 H311       15.6869  -14.6869   14.0658 H         1 SUB1        0.054
     14 H341       17.5098  -10.5354   16.2345 H         1 SUB1        0.054
     15 H361       15.4506  -15.3974   16.7759 H         1 SUB1        0.232
     16 C1         11.7700  -11.8410   23.0670 C.ar      1 SUB1        0.172
     17 C2         12.2330  -10.6420   22.4680 C.ar      1 SUB1       -0.024
     18 C3         13.2390  -10.6310   21.4990 C.ar      1 SUB1       -0.061
     19 C4         13.7490  -11.8610   21.1600 C.ar      1 SUB1        0.022
     20 C5         13.3230  -13.0070   21.7150 C.ar      1 SUB1        0.083
     21 C6         12.3410  -13.0620   22.6640 C.ar      1 SUB1        0.012
     22 C7         10.8040  -11.8370   24.0380 C.cat     1 SUB1        0.310
     23 C8         14.8610  -13.4670   20.3290 C.2       1 SUB1        0.141
     24 C9         15.9340  -14.2920   19.4750 C.3       1 SUB1        0.111
     25 N1         10.1410  -12.9340   24.2920 N.pl3     1 SUB1       -0.201
     26 N2         10.5790  -10.7240   24.6980 N.pl3     1 SUB1       -0.201
     27 N3         14.6910  -12.1700   20.3150 N.2       1 SUB1       -0.315
     28 N4         14.0170  -13.9780   21.1910 N.pl3     1 SUB1       -0.244
     29 C1'        17.0350  -11.5170   14.3500 C.ar      1 SUB1       -0.078
     30 C2'        16.5210  -12.6870   13.7390 C.ar      1 SUB1       -0.076
     31 C3'        16.0800  -13.7840   14.5190 C.ar      1 SUB1       -0.042
     32 C4'        16.1790  -13.6390   15.8930 C.ar      1 SUB1        0.079
     33 C5'        16.6740  -12.5160   16.4540 C.ar      1 SUB1        0.022
     34 C6'        17.1190  -11.4190   15.7430 C.ar      1 SUB1       -0.065
     35 C8'        16.1400  -13.8320   17.9970 C.2       1 SUB1        0.141
     36 N3'        15.8530  -14.4540   16.8710 N.pl3     1 SUB1       -0.244
     37 N4'        16.6380  -12.6680   17.7390 N.2       1 SUB1       -0.315
@<TRIPOS>BOND
     1   17    1 1  
     2   18    2 1  
     3   21    3 1  
     4   24    4 1  
     5   24    5 1  
     6   25    6 1  
     7   25    7 1  
     8   26    8 1  
     9   26    9 1  
    10   28   10 1  
    11   29   11 1  
    12   30   12 1  
    13   31   13 1  
    14   34   14 1  
    15   36   15 1  
    16   22   16 1  
    17   16   21 ar 
    18   16   17 ar 
    19   17   18 ar 
    20   18   19 ar 
    21   19   27 1  
    22   20   19 ar 
    23   20   28 1  
    24   21   20 ar 
    25   28   23 1  
    26   27   23 2  
    27   23   24 1  
    28   24   35 1  
    29   35   37 2  
    30   35   36 1  
    31   36   32 1  
    32   32   33 ar 
    33   32   31 ar 
    34   31   30 ar 
    35   30   29 ar 
    36   34   29 ar 
    37   33   34 ar 
    38   37   33 1  
    39   22   26 1  
    40   22   25 1  
@<TRIPOS>SUBSTRUCTURE
     1 SUB1        1 GROUP

