1c1u_ligand
  -I-interpret- 

 37 40  0  0  0  0  0  0  0  0999 V2000
   11.7905   -9.7006   22.7729 H   0  0  0  0  0
   13.5938   -9.7130   21.0446 H   0  0  0  0  0
   12.0162  -14.0054   23.0878 H   0  0  0  0  0
   15.6119  -15.3436   19.4573 H   0  0  0  0  0
   16.9035  -14.2140   19.9889 H   0  0  0  0  0
    9.4131  -12.9388   25.0207 H   0  0  0  0  0
   10.3463  -13.7939   23.7635 H   0  0  0  0  0
   11.1180   -9.8751   24.4750 H   0  0  0  0  0
    9.8636  -10.7001   25.4386 H   0  0  0  0  0
   13.9185  -14.9782   21.4165 H   0  0  0  0  0
   17.3663  -10.6899   13.7325 H   0  0  0  0  0
   16.4643  -12.7437   12.6580 H   0  0  0  0  0
   15.6869  -14.6869   14.0658 H   0  0  0  0  0
   17.5098  -10.5354   16.2345 H   0  0  0  0  0
   15.4506  -15.3974   16.7759 H   0  0  0  0  0
   11.7700  -11.8410   23.0670 C   0  0  0  0  0
   12.2330  -10.6420   22.4680 C   0  0  0  0  0
   13.2390  -10.6310   21.4990 C   0  0  0  0  0
   13.7490  -11.8610   21.1600 C   0  0  0  0  0
   13.3230  -13.0070   21.7150 C   0  0  0  0  0
   12.3410  -13.0620   22.6640 C   0  0  0  0  0
   10.8040  -11.8370   24.0380 C   0  3  0  0  0
   14.8610  -13.4670   20.3290 C   0  0  0  0  0
   15.9340  -14.2920   19.4750 C   0  0  0  0  0
   10.1410  -12.9340   24.2920 N   0  0  0  0  0
   10.5790  -10.7240   24.6980 N   0  0  0  0  0
   14.6910  -12.1700   20.3150 N   0  0  0  0  0
   14.0170  -13.9780   21.1910 N   0  0  0  0  0
   17.0350  -11.5170   14.3500 C   0  0  0  0  0
   16.5210  -12.6870   13.7390 C   0  0  0  0  0
   16.0800  -13.7840   14.5190 C   0  0  0  0  0
   16.1790  -13.6390   15.8930 C   0  0  0  0  0
   16.6740  -12.5160   16.4540 C   0  0  0  0  0
   17.1190  -11.4190   15.7430 C   0  0  0  0  0
   16.1400  -13.8320   17.9970 C   0  0  0  0  0
   15.8530  -14.4540   16.8710 N   0  0  0  0  0
   16.6380  -12.6680   17.7390 N   0  0  0  0  0
 17  1  1  0  0  0
 18  2  1  0  0  0
 21  3  1  0  0  0
 24  4  1  0  0  0
 24  5  1  0  0  0
 25  6  1  0  0  0
 25  7  1  0  0  0
 26  8  1  0  0  0
 26  9  1  0  0  0
 28 10  1  0  0  0
 29 11  1  0  0  0
 30 12  1  0  0  0
 31 13  1  0  0  0
 34 14  1  0  0  0
 36 15  1  0  0  0
 22 16  1  0  0  0
 16 21  4  0  0  0
 16 17  4  0  0  0
 17 18  4  0  0  0
 18 19  4  0  0  0
 19 27  1  0  0  0
 20 19  4  0  0  0
 20 28  1  0  0  0
 21 20  4  0  0  0
 28 23  1  0  0  0
 27 23  2  0  0  0
 23 24  1  0  0  0
 24 35  1  0  0  0
 35 37  2  0  0  0
 35 36  1  0  0  0
 36 32  1  0  0  0
 32 33  4  0  0  0
 32 31  4  0  0  0
 31 30  4  0  0  0
 30 29  4  0  0  0
 34 29  4  0  0  0
 33 34  4  0  0  0
 37 33  1  0  0  0
 22 26  1  0  0  0
 22 25  1  0  0  0
M  END
$$$$
