### 
### Created by X-TOOL on Tue Oct 25 00:19:37 2005
### 

@<TRIPOS>MOLECULE
1lbf_ligand
   39    39     1     0     0
SMALL
GAST_HUCK


@<TRIPOS>ATOM
      1 P          -6.3130  -23.0150   28.0760 P.3       1 SUB1        0.205
      2 O1P        -5.0920  -22.9280   27.2610 O.co2     1 SUB1       -0.535
      3 O2P        -7.5040  -22.4980   27.3370 O.co2     1 SUB1       -0.535
      4 O3P        -6.4450  -24.3750   28.5520 O.co2     1 SUB1       -0.535
      5 O5'        -6.1980  -22.2390   29.3450 O.3       1 SUB1       -0.320
      6 C5'        -5.1760  -21.9580   30.0560 C.3       1 SUB1        0.094
      7 C4'        -5.4090  -21.2230   31.3900 C.3       1 SUB1        0.111
      8 O4'        -5.4830  -19.8010   31.1350 O.3       1 SUB1       -0.387
      9 C3'        -6.7310  -21.6960   32.0510 C.3       1 SUB1        0.110
     10 O3'        -6.4440  -22.9900   32.5680 O.3       1 SUB1       -0.387
     11 C2'        -7.1600  -20.8460   33.2850 C.3       1 SUB1        0.091
     12 O2'        -6.1590  -20.4380   34.1710 O.3       1 SUB1       -0.388
     13 C1'        -8.3100  -21.3940   34.0870 C.3       1 SUB1       -0.014
     14 NH         -9.2920  -21.9510   33.1990 N.4       1 SUB1        0.456
     15 C1        -11.5690  -22.8590   32.9600 C.ar      1 SUB1        0.073
     16 C2        -10.6200  -22.0160   33.6290 C.ar      1 SUB1        0.005
     17 C3        -11.0030  -21.1760   34.7100 C.ar      1 SUB1       -0.031
     18 C4        -12.3340  -21.1740   35.1210 C.ar      1 SUB1       -0.047
     19 C5        -13.2870  -21.9950   34.4610 C.ar      1 SUB1       -0.045
     20 C6        -12.9070  -22.8240   33.4000 C.ar      1 SUB1       -0.027
     21 C7        -11.2310  -23.8430   31.9140 C.2       1 SUB1        0.150
     22 O71       -10.1010  -23.9610   31.4600 O.co2     1 SUB1       -0.490
     23 O72       -12.1160  -24.5870   31.4970 O.co2     1 SUB1       -0.490
     24 H61        -4.5146  -21.3265   29.4447 H         1 SUB1        0.064
     25 H62        -4.6671  -22.9052   30.2879 H         1 SUB1        0.064
     26 H71        -4.5701  -21.4312   32.0704 H         1 SUB1        0.065
     27 H81        -5.6115  -19.3396   31.9554 H         1 SUB1        0.210
     28 H91        -7.5407  -21.7199   31.3069 H         1 SUB1        0.065
     29 H101       -6.1741  -23.5607   31.8581 H         1 SUB1        0.210
     30 H111       -7.5371  -19.9149   32.8368 H         1 SUB1        0.063
     31 H121       -5.4250  -20.0891   33.6789 H         1 SUB1        0.210
     32 H131       -8.7656  -20.5838   34.6752 H         1 SUB1        0.039
     33 H132       -7.9429  -22.1781   34.7655 H         1 SUB1        0.039
     34 H141       -9.0015  -22.8927   32.9873 H         1 SUB1        0.064
     35 H142       -9.2789  -21.3979   32.3564 H         1 SUB1        0.064
     36 H171      -10.2719  -20.5478   35.2059 H         1 SUB1        0.062
     37 H181      -12.6435  -20.5440   35.9471 H         1 SUB1        0.077
     38 H191      -14.3218  -21.9790   34.7835 H         1 SUB1        0.063
     39 H201      -13.6491  -23.4453   32.9118 H         1 SUB1        0.077
@<TRIPOS>BOND
     1    1    5 1  
     2    1    4 2  
     3    1    3 2  
     4    1    2 2  
     5    5    6 1  
     6    6    7 1  
     7    7    9 1  
     8    7    8 1  
     9    9   11 1  
    10    9   10 1  
    11   11   13 1  
    12   11   12 1  
    13   13   14 1  
    14   14   16 1  
    15   16   15 ar 
    16   16   17 ar 
    17   17   18 ar 
    18   18   19 ar 
    19   19   20 ar 
    20   20   15 ar 
    21   15   21 1  
    22   21   23 2  
    23   21   22 2  
    24    6   24 1  
    25    6   25 1  
    26    7   26 1  
    27    8   27 1  
    28    9   28 1  
    29   10   29 1  
    30   11   30 1  
    31   12   31 1  
    32   13   32 1  
    33   13   33 1  
    34   14   34 1  
    35   14   35 1  
    36   17   36 1  
    37   18   37 1  
    38   19   38 1  
    39   20   39 1  
@<TRIPOS>SUBSTRUCTURE
     1 SUB1        1 GROUP

