1lbf_ligand
  -I-interpret- 

 39 39  0  0  0  0  0  0  0  0999 V2000
   -6.3130  -23.0150   28.0760 P   0  0  0  0  0
   -5.0920  -22.9280   27.2610 O   0  5  0  0  0
   -7.5040  -22.4980   27.3370 O   0  5  0  0  0
   -6.4450  -24.3750   28.5520 O   0  0  0  0  0
   -6.1980  -22.2390   29.3450 O   0  0  0  0  0
   -5.1760  -21.9580   30.0560 C   0  0  0  0  0
   -5.4090  -21.2230   31.3900 C   0  0  0  0  0
   -5.4830  -19.8010   31.1350 O   0  0  0  0  0
   -6.7310  -21.6960   32.0510 C   0  0  0  0  0
   -6.4440  -22.9900   32.5680 O   0  0  0  0  0
   -7.1600  -20.8460   33.2850 C   0  0  0  0  0
   -6.1590  -20.4380   34.1710 O   0  0  0  0  0
   -8.3100  -21.3940   34.0870 C   0  0  0  0  0
   -9.2920  -21.9510   33.1990 N   0  3  0  0  0
  -11.5690  -22.8590   32.9600 C   0  0  0  0  0
  -10.6200  -22.0160   33.6290 C   0  0  0  0  0
  -11.0030  -21.1760   34.7100 C   0  0  0  0  0
  -12.3340  -21.1740   35.1210 C   0  0  0  0  0
  -13.2870  -21.9950   34.4610 C   0  0  0  0  0
  -12.9070  -22.8240   33.4000 C   0  0  0  0  0
  -11.2310  -23.8430   31.9140 C   0  0  0  0  0
  -10.1010  -23.9610   31.4600 O   0  0  0  0  0
  -12.1160  -24.5870   31.4970 O   0  5  0  0  0
   -4.5146  -21.3265   29.4447 H   0  0  0  0  0
   -4.6671  -22.9052   30.2879 H   0  0  0  0  0
   -4.5701  -21.4312   32.0704 H   0  0  0  0  0
   -5.6115  -19.3396   31.9554 H   0  0  0  0  0
   -7.5407  -21.7199   31.3069 H   0  0  0  0  0
   -6.1741  -23.5607   31.8581 H   0  0  0  0  0
   -7.5371  -19.9149   32.8368 H   0  0  0  0  0
   -5.4250  -20.0891   33.6789 H   0  0  0  0  0
   -8.7656  -20.5838   34.6752 H   0  0  0  0  0
   -7.9429  -22.1781   34.7655 H   0  0  0  0  0
   -9.0015  -22.8927   32.9873 H   0  0  0  0  0
   -9.2789  -21.3979   32.3564 H   0  0  0  0  0
  -10.2719  -20.5478   35.2059 H   0  0  0  0  0
  -12.6435  -20.5440   35.9471 H   0  0  0  0  0
  -14.3218  -21.9790   34.7835 H   0  0  0  0  0
  -13.6491  -23.4453   32.9118 H   0  0  0  0  0
  1  5  1  0  0  0
  1  4  2  0  0  0
  1  3  1  0  0  0
  1  2  1  0  0  0
  5  6  1  0  0  0
  6  7  1  0  0  0
  7  9  1  0  0  0
  7  8  1  0  0  0
  9 11  1  0  0  0
  9 10  1  0  0  0
 11 13  1  0  0  0
 11 12  1  0  0  0
 13 14  1  0  0  0
 14 16  1  0  0  0
 16 15  4  0  0  0
 16 17  4  0  0  0
 17 18  4  0  0  0
 18 19  4  0  0  0
 19 20  4  0  0  0
 20 15  4  0  0  0
 15 21  1  0  0  0
 21 23  1  0  0  0
 21 22  2  0  0  0
  6 24  1  0  0  0
  6 25  1  0  0  0
  7 26  1  0  0  0
  8 27  1  0  0  0
  9 28  1  0  0  0
 10 29  1  0  0  0
 11 30  1  0  0  0
 12 31  1  0  0  0
 13 32  1  0  0  0
 13 33  1  0  0  0
 14 34  1  0  0  0
 14 35  1  0  0  0
 17 36  1  0  0  0
 18 37  1  0  0  0
 19 38  1  0  0  0
 20 39  1  0  0  0
M  END
$$$$
