1vj9_ligand
  -I-interpret- 

 74 76  0  0  0  0  0  0  0  0999 V2000
   26.9540   13.3560   31.6730 C   0  0  0  0  0
   27.7720   12.2340   32.0140 O   0  0  0  0  0
   27.8100   11.3520   30.9070 C   0  0  0  0  0
   29.0800   10.4880   30.9340 C   0  0  0  0  0
   30.2260   11.3780   30.9580 N   0  0  0  0  0
   31.5370   10.8760   30.9940 C   0  0  0  0  0
   32.6730   11.9030   31.0090 C   0  0  0  0  0
   33.6380   11.7600   29.9540 N   0  0  0  0  0
   33.4900   12.0200   28.3290 S   0  0  0  0  0
   32.1710   10.9600   27.7080 C   0  0  0  0  0
   32.0150   11.2020   26.1530 C   0  0  0  0  0
   31.0180   12.1550   25.7940 C   0  0  0  0  0
   30.7720   12.4540   24.4210 C   0  0  0  0  0
   31.5280   11.7920   23.4260 C   0  0  0  0  0
   32.5220   10.8440   23.7770 C   0  0  0  0  0
   32.7670   10.5470   25.1410 C   0  0  0  0  0
   33.0920   13.3950   28.2000 O   0  0  0  0  0
   34.8540   11.7180   27.8430 O   0  0  0  0  0
   33.5270   11.8780   32.2870 C   0  0  0  0  0
   32.6690   12.0990   33.3800 O   0  0  0  0  0
   31.7780    9.6830   31.0070 O   0  0  0  0  0
   29.0220    9.5980   29.7210 C   0  0  0  0  0
   29.2530   10.0540   28.6280 O   0  0  0  0  0
   28.6870    8.2860   29.9850 N   0  0  0  0  0
   28.5770    7.3270   28.9210 C   0  0  0  0  0
   29.8580    6.5740   28.6010 C   0  0  0  0  0
   29.9480    5.2030   28.9490 C   0  0  0  0  0
   31.1100    4.4580   28.6640 C   0  0  0  0  0
   32.2480    5.0480   28.0170 C   0  0  0  0  0
   32.1860    6.4360   27.6530 C   0  0  0  0  0
   30.9930    7.1780   27.9490 C   0  0  0  0  0
   33.3730    4.2280   27.7550 C   0  3  0  0  0
   33.3600    2.9200   28.0940 N   0  0  0  0  0
   34.5170    4.6290   27.1660 N   0  0  0  0  0
   26.4810   14.0440   32.9540 C   0  0  0  0  0
   25.1870   13.7490   33.4850 C   0  0  0  0  0
   24.7470   14.3920   34.6820 C   0  0  0  0  0
   25.5980   15.3270   35.3460 C   0  0  0  0  0
   26.8890   15.6210   34.8150 C   0  0  0  0  0
   27.3330   14.9820   33.6210 C   0  0  0  0  0
   26.0821   13.0135   31.0964 H   0  0  0  0  0
   27.5375   14.0660   31.0685 H   0  0  0  0  0
   27.7951   11.9404   29.9777 H   0  0  0  0  0
   26.9279   10.6957   30.9397 H   0  0  0  0  0
   29.0972    9.8624   31.8386 H   0  0  0  0  0
   30.0794   12.3672   30.9487 H   0  0  0  0  0
   32.2009   12.8925   30.9192 H   0  0  0  0  0
   34.5429   11.4546   30.2503 H   0  0  0  0  0
   31.2276   11.2063   28.2173 H   0  0  0  0  0
   32.4243    9.9060   27.8948 H   0  0  0  0  0
   30.4447   12.6543   26.5668 H   0  0  0  0  0
   30.0154   13.1792   24.1440 H   0  0  0  0  0
   31.3450   12.0124   22.3805 H   0  0  0  0  0
   33.0944   10.3465   23.0025 H   0  0  0  0  0
   33.5261    9.8220   25.4114 H   0  0  0  0  0
   34.2895   12.6696   32.2435 H   0  0  0  0  0
   34.0194   10.8997   32.3893 H   0  0  0  0  0
   33.1739   12.0883   34.1847 H   0  0  0  0  0
   28.5188    7.9992   30.9281 H   0  0  0  0  0
   28.2582    7.8596   28.0129 H   0  0  0  0  0
   27.8097    6.5909   29.2028 H   0  0  0  0  0
   29.1113    4.7206   29.4413 H   0  0  0  0  0
   31.1456    3.4106   28.9409 H   0  0  0  0  0
   33.0258    6.9153   27.1630 H   0  0  0  0  0
   30.9442    8.2253   27.6736 H   0  0  0  0  0
   34.1816    2.3296   27.9005 H   0  0  0  0  0
   32.5285    2.5133   28.5459 H   0  0  0  0  0
   34.6273    5.6091   26.8692 H   0  0  0  0  0
   35.2809    3.9553   27.0127 H   0  0  0  0  0
   24.5414   13.0392   32.9805 H   0  0  0  0  0
   23.7662   14.1701   35.0868 H   0  0  0  0  0
   25.2626   15.8139   36.2546 H   0  0  0  0  0
   27.5332   16.3314   35.3204 H   0  0  0  0  0
   28.3143   15.2057   33.2183 H   0  0  0  0  0
  1  2  1  0  0  0
  1 35  1  0  0  0
  2  3  1  0  0  0
  3  4  1  0  0  0
  4  5  1  0  0  0
  4 22  1  0  0  0
  5  6  1  0  0  0
  6  7  1  0  0  0
  6 21  2  0  0  0
  7  8  1  0  0  0
  7 19  1  0  0  0
  8  9  1  0  0  0
  9 10  1  0  0  0
  9 17  2  0  0  0
  9 18  2  0  0  0
 10 11  1  0  0  0
 11 12  4  0  0  0
 11 16  4  0  0  0
 12 13  4  0  0  0
 13 14  4  0  0  0
 14 15  4  0  0  0
 15 16  4  0  0  0
 19 20  1  0  0  0
 22 23  2  0  0  0
 22 24  1  0  0  0
 24 25  1  0  0  0
 25 26  1  0  0  0
 26 27  4  0  0  0
 26 31  4  0  0  0
 27 28  4  0  0  0
 28 29  4  0  0  0
 29 30  4  0  0  0
 29 32  1  0  0  0
 30 31  4  0  0  0
 32 33  1  0  0  0
 32 34  1  0  0  0
 35 36  4  0  0  0
 35 40  4  0  0  0
 36 37  4  0  0  0
 37 38  4  0  0  0
 38 39  4  0  0  0
 39 40  4  0  0  0
  1 41  1  0  0  0
  1 42  1  0  0  0
  3 43  1  0  0  0
  3 44  1  0  0  0
  4 45  1  0  0  0
  5 46  1  0  0  0
  7 47  1  0  0  0
  8 48  1  0  0  0
 10 49  1  0  0  0
 10 50  1  0  0  0
 12 51  1  0  0  0
 13 52  1  0  0  0
 14 53  1  0  0  0
 15 54  1  0  0  0
 16 55  1  0  0  0
 19 56  1  0  0  0
 19 57  1  0  0  0
 20 58  1  0  0  0
 24 59  1  0  0  0
 25 60  1  0  0  0
 25 61  1  0  0  0
 27 62  1  0  0  0
 28 63  1  0  0  0
 30 64  1  0  0  0
 31 65  1  0  0  0
 33 66  1  0  0  0
 33 67  1  0  0  0
 34 68  1  0  0  0
 34 69  1  0  0  0
 36 70  1  0  0  0
 37 71  1  0  0  0
 38 72  1  0  0  0
 39 73  1  0  0  0
 40 74  1  0  0  0
M  END
$$$$
