1j4r_ligand
  -I-interpret- 

 87 90  0  0  0  0  0  0  0  0999 V2000
   24.5897   13.9677   26.3311 H   0  0  0  0  0
   27.7701   11.1128   25.6611 H   0  0  0  0  0
   23.9952   16.1767   29.0169 H   0  0  0  0  0
   23.5140   14.7246   28.0754 H   0  0  0  0  0
   24.5437   15.9861   27.3171 H   0  0  0  0  0
   27.6819   13.6814   31.6317 H   0  0  0  0  0
   26.7898   12.3121   30.8862 H   0  0  0  0  0
   26.1780   13.9906   30.6994 H   0  0  0  0  0
   30.6758   10.3500   27.6234 H   0  0  0  0  0
   30.2326   11.5111   26.3265 H   0  0  0  0  0
   26.1080   12.5010   25.8480 C   0  0  0  0  0
   25.4980   13.4760   26.6600 C   0  0  0  0  0
   26.0770   13.8120   27.9100 C   0  0  0  0  0
   27.2710   13.1660   28.3470 C   0  0  0  0  0
   27.8790   12.1900   27.5380 C   0  0  0  0  0
   27.3000   11.8610   26.2890 C   0  0  0  0  0
   25.4930   14.7690   28.7090 O   0  0  0  0  0
   24.3180   15.4540   28.2530 C   0  0  0  0  0
   27.8620   13.5160   29.5560 O   0  0  0  0  0
   27.0810   13.3660   30.7660 C   0  0  0  0  0
   29.0040   11.5230   28.0010 O   0  0  0  0  0
   29.8390   10.8120   27.0790 C   0  0  0  0  0
   25.5020   12.0550   24.5480 C   0  0  0  0  0
   26.4600   11.8800   23.4410 C   0  0  0  0  0
   26.8220   10.7470   23.1630 O   0  0  0  0  0
   26.9580   12.9410   22.7610 N   0  0  0  0  0
   26.6800   14.3710   23.1220 C   0  0  0  0  0
   26.3260   15.2550   21.8850 C   0  0  0  0  0
   27.3440   15.0610   20.7410 C   0  0  0  0  0
   27.5640   13.5710   20.4080 C   0  0  0  0  0
   27.9380   12.7540   21.6590 C   0  0  0  0  0
   29.3200   13.1580   22.1470 C   0  0  0  0  0
   30.2350   13.2670   21.3540 O   0  0  0  0  0
   29.5670   13.4060   23.4560 O   0  0  0  0  0
   30.9210   13.7700   23.7570 C   0  0  0  0  0
   31.6030   12.6040   24.4680 C   0  0  0  0  0
   33.0100   13.0100   24.9400 C   0  0  0  0  0
   33.9540   11.8460   24.7210 C   0  0  0  0  0
   34.6170   11.9980   23.3780 C   0  0  0  0  0
   35.5520   13.0340   23.1550 C   0  0  0  0  0
   36.2040   13.1090   21.9800 N   0  0  0  0  0
   35.9870   12.2050   20.9830 C   0  0  0  0  0
   35.0640   11.1610   21.1400 C   0  0  0  0  0
   34.3710   11.0620   22.3540 C   0  0  0  0  0
   30.9830   15.0380   24.6320 C   0  0  0  0  0
   29.6070   15.6140   24.8810 C   0  0  0  0  0
   29.2190   15.3260   26.3300 C   0  0  0  0  0
   28.2530   16.3890   26.7840 C   0  0  0  0  0
   27.0480   16.5770   26.0930 C   0  0  0  0  0
   26.1480   17.5590   26.5090 C   0  0  0  0  0
   26.4540   18.3600   27.6170 C   0  0  0  0  0
   27.6620   18.1690   28.3070 C   0  0  0  0  0
   28.5610   17.1860   27.8890 C   0  0  0  0  0
   29.2498   10.0290   26.5794 H   0  0  0  0  0
   27.5736   14.7899   23.6079 H   0  0  0  0  0
   25.8342   14.3970   23.8248 H   0  0  0  0  0
   26.3272   16.3121   22.1890 H   0  0  0  0  0
   25.3247   14.9787   21.5230 H   0  0  0  0  0
   28.3052   15.5029   21.0425 H   0  0  0  0  0
   26.9703   15.5740   19.8426 H   0  0  0  0  0
   28.3770   13.4870   19.6719 H   0  0  0  0  0
   26.6375   13.1615   19.9793 H   0  0  0  0  0
   27.9545   11.6890   21.3843 H   0  0  0  0  0
   31.4499   13.9716   22.8138 H   0  0  0  0  0
   31.6851   11.7547   23.7738 H   0  0  0  0  0
   31.0001   12.3086   25.3393 H   0  0  0  0  0
   32.9814   13.2664   26.0093 H   0  0  0  0  0
   33.3565   13.8803   24.3633 H   0  0  0  0  0
   33.3888   10.9027   24.7485 H   0  0  0  0  0
   34.7192   11.8382   25.5111 H   0  0  0  0  0
   35.7439   13.7676   23.9297 H   0  0  0  0  0
   36.5371   12.2947   20.0533 H   0  0  0  0  0
   34.8908   10.4481   20.3420 H   0  0  0  0  0
   33.6483   10.2682   22.5047 H   0  0  0  0  0
   31.5986   15.7934   24.1217 H   0  0  0  0  0
   31.4425   14.7822   25.5982 H   0  0  0  0  0
   28.8796   15.1457   24.2016 H   0  0  0  0  0
   29.6224   16.7004   24.7094 H   0  0  0  0  0
   30.1166   15.3439   26.9655 H   0  0  0  0  0
   28.7418   14.3372   26.3973 H   0  0  0  0  0
   26.8148   15.9584   25.2339 H   0  0  0  0  0
   25.2147   17.7017   25.9764 H   0  0  0  0  0
   25.7591   19.1262   27.9412 H   0  0  0  0  0
   27.8971   18.7864   29.1664 H   0  0  0  0  0
   29.4949   17.0418   28.4202 H   0  0  0  0  0
   24.5090   12.8770   24.1440 F   0  0  0  0  0
   24.9450   10.8550   24.7810 F   0  0  0  0  0
 12  1  1  0  0  0
 16  2  1  0  0  0
 18  3  1  0  0  0
 18  4  1  0  0  0
 18  5  1  0  0  0
 20  6  1  0  0  0
 20  7  1  0  0  0
 20  8  1  0  0  0
 11 23  1  0  0  0
 11 16  4  0  0  0
 12 11  4  0  0  0
 13 12  4  0  0  0
 17 13  1  0  0  0
 13 14  4  0  0  0
 14 19  1  0  0  0
 14 15  4  0  0  0
 15 21  1  0  0  0
 15 16  4  0  0  0
 21 22  1  0  0  0
 19 20  1  0  0  0
 17 18  1  0  0  0
 23 24  1  0  0  0
 24 26  1  0  0  0
 24 25  2  0  0  0
 26 31  1  0  0  0
 26 27  1  0  0  0
 27 28  1  0  0  0
 28 29  1  0  0  0
 29 30  1  0  0  0
 30 31  1  0  0  0
 31 32  1  0  0  0
 32 34  1  0  0  0
 32 33  2  0  0  0
 34 35  1  0  0  0
 35 45  1  0  0  0
 35 36  1  0  0  0
 36 37  1  0  0  0
 37 38  1  0  0  0
 38 39  1  0  0  0
 39 44  4  0  0  0
 39 40  4  0  0  0
 40 41  4  0  0  0
 41 42  4  0  0  0
 42 43  4  0  0  0
 43 44  4  0  0  0
 45 46  1  0  0  0
 46 47  1  0  0  0
 47 48  1  0  0  0
 48 53  4  0  0  0
 48 49  4  0  0  0
 49 50  4  0  0  0
 50 51  4  0  0  0
 51 52  4  0  0  0
 52 53  4  0  0  0
 22  9  1  0  0  0
 22 10  1  0  0  0
 22 54  1  0  0  0
 27 55  1  0  0  0
 27 56  1  0  0  0
 28 57  1  0  0  0
 28 58  1  0  0  0
 29 59  1  0  0  0
 29 60  1  0  0  0
 30 61  1  0  0  0
 30 62  1  0  0  0
 31 63  1  0  0  0
 35 64  1  0  0  0
 36 65  1  0  0  0
 36 66  1  0  0  0
 37 67  1  0  0  0
 37 68  1  0  0  0
 38 69  1  0  0  0
 38 70  1  0  0  0
 40 71  1  0  0  0
 42 72  1  0  0  0
 43 73  1  0  0  0
 44 74  1  0  0  0
 45 75  1  0  0  0
 45 76  1  0  0  0
 46 77  1  0  0  0
 46 78  1  0  0  0
 47 79  1  0  0  0
 47 80  1  0  0  0
 49 81  1  0  0  0
 50 82  1  0  0  0
 51 83  1  0  0  0
 52 84  1  0  0  0
 53 85  1  0  0  0
 23 86  1  0  0  0
 23 87  1  0  0  0
M  END
$$$$
