### 
### Created by X-TOOL on Mon Oct 24 22:41:47 2005
### 

@<TRIPOS>MOLECULE
1j4r_ligand
   87    90     1     0     0
SMALL
GAST_HUCK


@<TRIPOS>ATOM
      1 H121       24.5897   13.9677   26.3311 H         1 SUB1        0.065
      2 H161       27.7701   11.1128   25.6611 H         1 SUB1        0.065
      3 H181       23.9952   16.1767   29.0169 H         1 SUB1        0.057
      4 H182       23.5140   14.7246   28.0754 H         1 SUB1        0.057
      5 H183       24.5437   15.9861   27.3171 H         1 SUB1        0.057
      6 H201       27.6819   13.6814   31.6317 H         1 SUB1        0.059
      7 H202       26.7898   12.3121   30.8862 H         1 SUB1        0.059
      8 H203       26.1780   13.9906   30.6994 H         1 SUB1        0.059
      9 H221       30.6758   10.3500   27.6234 H         1 SUB1        0.057
     10 H222       30.2326   11.5111   26.3265 H         1 SUB1        0.057
     11 C01        26.1080   12.5010   25.8480 C.ar      1 SUB1       -0.014
     12 C02        25.4980   13.4760   26.6600 C.ar      1 SUB1       -0.022
     13 C03        26.0770   13.8120   27.9100 C.ar      1 SUB1        0.151
     14 C04        27.2710   13.1660   28.3470 C.ar      1 SUB1        0.196
     15 C05        27.8790   12.1900   27.5380 C.ar      1 SUB1        0.151
     16 C06        27.3000   11.8610   26.2890 C.ar      1 SUB1       -0.022
     17 O03        25.4930   14.7690   28.7090 O.3       1 SUB1       -0.317
     18 C07        24.3180   15.4540   28.2530 C.3       1 SUB1        0.058
     19 O04        27.8620   13.5160   29.5560 O.3       1 SUB1       -0.297
     20 C08        27.0810   13.3660   30.7660 C.3       1 SUB1        0.066
     21 O05        29.0040   11.5230   28.0010 O.3       1 SUB1       -0.317
     22 C09        29.8390   10.8120   27.0790 C.3       1 SUB1        0.058
     23 C10        25.5020   12.0550   24.5480 C.3       1 SUB1        0.285
     24 C11        26.4600   11.8800   23.4410 C.2       1 SUB1        0.218
     25 O11        26.8220   10.7470   23.1630 O.2       1 SUB1       -0.367
     26 N12        26.9580   12.9410   22.7610 N.am      1 SUB1       -0.255
     27 C12        26.6800   14.3710   23.1220 C.3       1 SUB1        0.036
     28 C13        26.3260   15.2550   21.8850 C.3       1 SUB1       -0.032
     29 C14        27.3440   15.0610   20.7410 C.3       1 SUB1       -0.047
     30 C15        27.5640   13.5710   20.4080 C.3       1 SUB1       -0.011
     31 C16        27.9380   12.7540   21.6590 C.3       1 SUB1        0.144
     32 C17        29.3200   13.1580   22.1470 C.2       1 SUB1        0.260
     33 O17        30.2350   13.2670   21.3540 O.2       1 SUB1       -0.368
     34 O18        29.5670   13.4060   23.4560 O.3       1 SUB1       -0.272
     35 C18        30.9210   13.7700   23.7570 C.3       1 SUB1        0.088
     36 C19        31.6030   12.6040   24.4680 C.3       1 SUB1       -0.020
     37 C20        33.0100   13.0100   24.9400 C.3       1 SUB1       -0.040
     38 C21        33.9540   11.8460   24.7210 C.3       1 SUB1       -0.013
     39 C22        34.6170   11.9980   23.3780 C.ar      1 SUB1       -0.015
     40 C23        35.5520   13.0340   23.1550 C.ar      1 SUB1        0.013
     41 N23        36.2040   13.1090   21.9800 N.ar      1 SUB1       -0.304
     42 C24        35.9870   12.2050   20.9830 C.ar      1 SUB1        0.004
     43 C25        35.0640   11.1610   21.1400 C.ar      1 SUB1       -0.041
     44 C26        34.3710   11.0620   22.3540 C.ar      1 SUB1       -0.040
     45 C27        30.9830   15.0380   24.6320 C.3       1 SUB1       -0.020
     46 C28        29.6070   15.6140   24.8810 C.3       1 SUB1       -0.041
     47 C29        29.2190   15.3260   26.3300 C.3       1 SUB1       -0.019
     48 C30        28.2530   16.3890   26.7840 C.ar      1 SUB1       -0.043
     49 C31        27.0480   16.5770   26.0930 C.ar      1 SUB1       -0.060
     50 C32        26.1480   17.5590   26.5090 C.ar      1 SUB1       -0.069
     51 C33        26.4540   18.3600   27.6170 C.ar      1 SUB1       -0.069
     52 C34        27.6620   18.1690   28.3070 C.ar      1 SUB1       -0.069
     53 C35        28.5610   17.1860   27.8890 C.ar      1 SUB1       -0.060
     54 H223       29.2498   10.0290   26.5794 H         1 SUB1        0.057
     55 H271       27.5736   14.7899   23.6079 H         1 SUB1        0.052
     56 H272       25.8342   14.3970   23.8248 H         1 SUB1        0.052
     57 H281       26.3272   16.3121   22.1890 H         1 SUB1        0.029
     58 H282       25.3247   14.9787   21.5230 H         1 SUB1        0.029
     59 H291       28.3052   15.5029   21.0425 H         1 SUB1        0.027
     60 H292       26.9703   15.5740   19.8426 H         1 SUB1        0.027
     61 H301       28.3770   13.4870   19.6719 H         1 SUB1        0.031
     62 H302       26.6375   13.1615   19.9793 H         1 SUB1        0.031
     63 H311       27.9545   11.6890   21.3843 H         1 SUB1        0.082
     64 H351       31.4499   13.9716   22.8138 H         1 SUB1        0.065
     65 H361       31.6851   11.7547   23.7738 H         1 SUB1        0.030
     66 H362       31.0001   12.3086   25.3393 H         1 SUB1        0.030
     67 H371       32.9814   13.2664   26.0093 H         1 SUB1        0.029
     68 H372       33.3565   13.8803   24.3633 H         1 SUB1        0.029
     69 H381       33.3888   10.9027   24.7485 H         1 SUB1        0.044
     70 H382       34.7192   11.8382   25.5111 H         1 SUB1        0.044
     71 H401       35.7439   13.7676   23.9297 H         1 SUB1        0.076
     72 H421       36.5371   12.2947   20.0533 H         1 SUB1        0.077
     73 H431       34.8908   10.4481   20.3420 H         1 SUB1        0.069
     74 H441       33.6483   10.2682   22.5047 H         1 SUB1        0.068
     75 H451       31.5986   15.7934   24.1217 H         1 SUB1        0.030
     76 H452       31.4425   14.7822   25.5982 H         1 SUB1        0.030
     77 H461       28.8796   15.1457   24.2016 H         1 SUB1        0.029
     78 H462       29.6224   16.7004   24.7094 H         1 SUB1        0.029
     79 H471       30.1166   15.3439   26.9655 H         1 SUB1        0.043
     80 H472       28.7418   14.3372   26.3973 H         1 SUB1        0.043
     81 H491       26.8148   15.9584   25.2339 H         1 SUB1        0.056
     82 H501       25.2147   17.7017   25.9764 H         1 SUB1        0.060
     83 H511       25.7591   19.1262   27.9412 H         1 SUB1        0.056
     84 H521       27.8971   18.7864   29.1664 H         1 SUB1        0.060
     85 H531       29.4949   17.0418   28.4202 H         1 SUB1        0.056
     86 F10        24.5090   12.8770   24.1440 F         1 SUB1       -0.263
     87 F11        24.9450   10.8550   24.7810 F         1 SUB1       -0.263
@<TRIPOS>BOND
     1   12    1 1  
     2   16    2 1  
     3   18    3 1  
     4   18    4 1  
     5   18    5 1  
     6   20    6 1  
     7   20    7 1  
     8   20    8 1  
     9   11   23 1  
    10   11   16 ar 
    11   12   11 ar 
    12   13   12 ar 
    13   17   13 1  
    14   13   14 ar 
    15   14   19 1  
    16   14   15 ar 
    17   15   21 1  
    18   15   16 ar 
    19   21   22 1  
    20   19   20 1  
    21   17   18 1  
    22   23   24 1  
    23   24   26 am 
    24   24   25 2  
    25   26   31 1  
    26   26   27 1  
    27   27   28 1  
    28   28   29 1  
    29   29   30 1  
    30   30   31 1  
    31   31   32 1  
    32   32   34 1  
    33   32   33 2  
    34   34   35 1  
    35   35   45 1  
    36   35   36 1  
    37   36   37 1  
    38   37   38 1  
    39   38   39 1  
    40   39   44 ar 
    41   39   40 ar 
    42   40   41 ar 
    43   41   42 ar 
    44   42   43 ar 
    45   43   44 ar 
    46   45   46 1  
    47   46   47 1  
    48   47   48 1  
    49   48   53 ar 
    50   48   49 ar 
    51   49   50 ar 
    52   50   51 ar 
    53   51   52 ar 
    54   52   53 ar 
    55   22    9 1  
    56   22   10 1  
    57   22   54 1  
    58   27   55 1  
    59   27   56 1  
    60   28   57 1  
    61   28   58 1  
    62   29   59 1  
    63   29   60 1  
    64   30   61 1  
    65   30   62 1  
    66   31   63 1  
    67   35   64 1  
    68   36   65 1  
    69   36   66 1  
    70   37   67 1  
    71   37   68 1  
    72   38   69 1  
    73   38   70 1  
    74   40   71 1  
    75   42   72 1  
    76   43   73 1  
    77   44   74 1  
    78   45   75 1  
    79   45   76 1  
    80   46   77 1  
    81   46   78 1  
    82   47   79 1  
    83   47   80 1  
    84   49   81 1  
    85   50   82 1  
    86   51   83 1  
    87   52   84 1  
    88   53   85 1  
    89   23   86 1  
    90   23   87 1  
@<TRIPOS>SUBSTRUCTURE
     1 SUB1        1 GROUP

