1tyr_ligand
  -MTS-   07110717153D 0   0.00000     0.00000     0

 22 22  0  0  0  0  0  0  0  0999 V2000
   21.1250   44.8670   56.3000 C   0  0  0  0  0  0  0  0  0  0  0  0
   21.0640   44.8520   54.7650 C   0  0  0  0  0  0  0  0  0  0  0  0
   21.8290   43.8200   54.1250 C   0  0  0  0  0  0  0  0  0  0  0  0
   21.3650   42.4230   54.4980 C   0  0  0  0  0  0  0  0  0  0  0  0
   21.2650   42.2620   55.9990 C   0  0  0  0  0  0  0  0  0  0  0  0
   21.1480   43.3550   56.8520 C   0  0  0  0  0  0  0  0  0  0  0  0
   20.8830   43.2370   58.3190 C   0  0  0  0  0  0  0  0  0  0  0  0
   21.8190   42.8930   59.4220 C   0  0  0  0  0  0  0  0  0  0  0  0
   21.6130   42.7170   60.8320 C   0  0  0  0  0  0  0  0  0  0  0  0
   22.7110   42.3640   61.5560 C   0  0  0  0  0  0  0  0  0  0  0  0
   22.7780   42.0890   62.9770 C   0  0  0  0  0  0  0  0  0  0  0  0
   23.9030   41.6130   63.5760 C   0  0  0  0  0  0  0  0  0  0  0  0
   25.1260   41.2590   62.8690 C   0  0  0  0  0  0  0  0  0  0  0  0
   26.1860   40.7930   63.5780 C   0  0  0  0  0  0  0  0  0  0  0  0
   26.9420   41.6530   64.4760 C   0  0  0  0  0  0  0  0  0  0  0  0
   19.8900   45.6480   56.8120 C   0  0  0  0  0  0  0  0  0  0  0  0
   22.3920   45.6070   56.7440 C   0  0  0  0  0  0  0  0  0  0  0  0
   21.4330   40.7950   56.4030 C   0  0  0  0  0  0  0  0  0  0  0  0
   20.1770   42.8650   61.3760 C   0  0  0  0  0  0  0  0  0  0  0  0
   25.0830   41.2160   61.2950 C   0  0  0  0  0  0  0  0  0  0  0  0
   26.6160   41.8320   65.8480 O   0  0  0  0  0  0  0  0  0  0  0  0
   28.0260   42.5200   64.5280 O   0  0  0  0  0  0  0  0  0  0  0  0
  1  2  1  0  0  0  0
  1  6  1  0  0  0  0
  1 16  1  0  0  0  0
  1 17  1  0  0  0  0
  2  3  1  0  0  0  0
  3  4  1  0  0  0  0
  4  5  1  0  0  0  0
  5  6  2  0  0  0  0
  5 18  1  0  0  0  0
  6  7  1  0  0  0  0
  7  8  2  0  0  0  0
  8  9  1  0  0  0  0
  9 10  2  0  0  0  0
  9 19  1  0  0  0  0
 10 11  1  0  0  0  0
 11 12  2  0  0  0  0
 12 13  1  0  0  0  0
 13 14  2  0  0  0  0
 13 20  1  0  0  0  0
 14 15  1  0  0  0  0
 15 21  2  0  0  0  0
 15 22  2  0  0  0  0
M  END
$$$$
