### 
### Created by X-TOOL on Tue Oct 25 00:11:13 2005
### 

@<TRIPOS>MOLECULE
1v2k_ligand
   61    65     1     0     0
SMALL
GAST_HUCK


@<TRIPOS>ATOM
      1 N1         43.1280   73.1170  -26.4980 N.ar      1 SUB1       -0.331
      2 C2         43.5910   74.3980  -26.2910 C.ar      1 SUB1       -0.002
      3 C3         44.8300   74.8050  -26.8640 C.ar      1 SUB1       -0.009
      4 C5         45.0600   72.5410  -27.8450 C.ar      1 SUB1       -0.021
      5 C6         43.8210   72.1970  -27.2470 C.2       1 SUB1       -0.016
      6 C4         45.5820   73.8620  -27.6580 C.ar      1 SUB1        0.055
      7 N7         46.8470   74.2480  -28.2620 N.3       1 SUB1       -0.246
      8 C8         47.5370   75.5460  -27.9140 C.3       1 SUB1        0.022
      9 C9         49.0340   75.3080  -27.5470 C.3       1 SUB1       -0.016
     10 C11        49.0580   73.2220  -28.9890 C.3       1 SUB1       -0.016
     11 C12        47.5430   73.3730  -29.2840 C.3       1 SUB1        0.022
     12 C10        49.7580   74.6160  -28.7490 C.3       1 SUB1        0.052
     13 C13        51.2490   74.3430  -28.4810 C.2       1 SUB1        0.182
     14 O23        51.5450   74.1550  -27.2790 O.2       1 SUB1       -0.397
     15 N14        52.1920   74.2970  -29.4460 N.am      1 SUB1       -0.270
     16 C15        51.9140   74.5270  -30.9120 C.3       1 SUB1        0.051
     17 C16        52.5270   73.3440  -31.7140 C.3       1 SUB1        0.050
     18 C18        54.1010   72.7510  -29.8730 C.3       1 SUB1        0.050
     19 C19        53.6210   74.0120  -29.0850 C.3       1 SUB1        0.051
     20 N17        53.9560   73.0930  -31.3260 N.am      1 SUB1       -0.230
     21 S20        54.6690   71.9940  -32.3400 S.o2      1 SUB1        0.071
     22 O21        56.0380   71.7780  -31.9090 O.2       1 SUB1       -0.150
     23 O22        54.5250   72.5550  -33.6590 O.2       1 SUB1       -0.150
     24 C24        53.8130   70.4190  -32.3510 C.ar      1 SUB1        0.109
     25 C25        54.0640   69.4100  -31.3460 C.ar      1 SUB1       -0.027
     26 C33        52.8090   70.1820  -33.3520 C.ar      1 SUB1       -0.034
     27 C34        52.0750   68.9710  -33.3810 C.ar      1 SUB1       -0.052
     28 C26        53.3290   68.1800  -31.3660 C.ar      1 SUB1       -0.016
     29 C27        52.3210   67.9720  -32.4030 C.ar      1 SUB1       -0.017
     30 C28        51.5920   66.7890  -32.4310 C.ar      1 SUB1       -0.040
     31 C30        52.8000   65.9530  -30.4350 C.ar      1 SUB1       -0.047
     32 C31        53.5580   67.1580  -30.3880 C.ar      1 SUB1       -0.054
     33 C29        51.8150   65.7820  -31.4640 C.ar      1 SUB1        0.041
     34 CL32       50.8670   64.3550  -31.5640 Cl        1 SUB1       -0.070
     35 H21        43.0138   75.0944  -25.6936 H         1 SUB1        0.088
     36 H31        45.2037   75.8102  -26.7060 H         1 SUB1        0.072
     37 H41        45.6051   71.8138  -28.4359 H         1 SUB1        0.067
     38 H51        43.4155   71.1954  -27.3826 H         1 SUB1        0.070
     39 H81        47.0257   76.0052  -27.0551 H         1 SUB1        0.048
     40 H82        47.4829   76.2241  -28.7784 H         1 SUB1        0.048
     41 H91        49.0963   74.6615  -26.6592 H         1 SUB1        0.031
     42 H92        49.5176   76.2725  -27.3329 H         1 SUB1        0.031
     43 H101       49.5385   72.7267  -29.8456 H         1 SUB1        0.031
     44 H102       49.1841   72.6022  -28.0890 H         1 SUB1        0.031
     45 H111       47.4190   73.8236  -30.2798 H         1 SUB1        0.048
     46 H112       47.0785   72.3760  -29.2722 H         1 SUB1        0.048
     47 H121       49.6616   75.2506  -29.6423 H         1 SUB1        0.054
     48 H161       52.3735   75.4730  -31.2343 H         1 SUB1        0.054
     49 H162       50.8282   74.5697  -31.0829 H         1 SUB1        0.054
     50 H171       52.4852   73.5810  -32.7873 H         1 SUB1        0.050
     51 H172       51.9388   72.4359  -31.5158 H         1 SUB1        0.050
     52 H181       53.4762   71.8816  -29.6206 H         1 SUB1        0.050
     53 H182       55.1518   72.5287  -29.6355 H         1 SUB1        0.050
     54 H191       53.6981   73.8232  -28.0041 H         1 SUB1        0.054
     55 H192       54.2484   74.8751  -29.3522 H         1 SUB1        0.054
     56 H251       54.8083   69.5841  -30.5774 H         1 SUB1        0.064
     57 H261       52.6102   70.9433  -34.0976 H         1 SUB1        0.064
     58 H271       51.3270   68.8074  -34.1484 H         1 SUB1        0.062
     59 H301       50.8451   66.6369  -33.2018 H         1 SUB1        0.063
     60 H311       52.9657   65.1730  -29.7007 H         1 SUB1        0.062
     61 H321       54.3050   67.3013  -29.6156 H         1 SUB1        0.062
@<TRIPOS>BOND
     1    1    2 ar 
     2    1    5 ar 
     3    2    3 ar 
     4    3    6 ar 
     5    5    4 ar 
     6    4    6 ar 
     7    6    7 1  
     8    7    8 1  
     9    7   11 1  
    10    8    9 1  
    11    9   12 1  
    12   11   10 1  
    13   10   12 1  
    14   12   13 1  
    15   13   14 2  
    16   13   15 am 
    17   15   16 1  
    18   15   19 1  
    19   16   17 1  
    20   17   20 1  
    21   19   18 1  
    22   18   20 1  
    23   20   21 am 
    24   21   22 2  
    25   21   23 2  
    26   21   24 1  
    27   24   25 ar 
    28   24   26 ar 
    29   25   28 ar 
    30   26   27 ar 
    31   27   29 ar 
    32   28   29 ar 
    33   28   32 ar 
    34   29   30 ar 
    35   30   33 ar 
    36   32   31 ar 
    37   31   33 ar 
    38   33   34 1  
    39    2   35 1  
    40    3   36 1  
    41    4   37 1  
    42    5   38 1  
    43    8   39 1  
    44    8   40 1  
    45    9   41 1  
    46    9   42 1  
    47   10   43 1  
    48   10   44 1  
    49   11   45 1  
    50   11   46 1  
    51   12   47 1  
    52   16   48 1  
    53   16   49 1  
    54   17   50 1  
    55   17   51 1  
    56   18   52 1  
    57   18   53 1  
    58   19   54 1  
    59   19   55 1  
    60   25   56 1  
    61   26   57 1  
    62   27   58 1  
    63   30   59 1  
    64   31   60 1  
    65   32   61 1  
@<TRIPOS>SUBSTRUCTURE
     1 SUB1        1 GROUP

