### 
### Created by X-TOOL on Sun Jun  3 11:44:49 2007
### 

@<TRIPOS>MOLECULE
1wcq_ligand
   39    39     1     0     0
SMALL
GAST_HUCK


@<TRIPOS>ATOM
      1 C1        -30.6010   54.0230   74.9030 C.2       1 SUB1        0.180
      2 C2        -31.3280   55.1730   75.6770 C.2       1 SUB1        0.287
      3 C3        -31.8500   54.9810   76.9490 C.2       1 SUB1        0.141
      4 C4        -32.4740   56.1990   77.6530 C.3       1 SUB1        0.197
      5 C5        -32.9930   57.2210   76.7160 C.3       1 SUB1        0.079
      6 C6        -31.8610   57.6120   75.7990 C.3       1 SUB1        0.197
      7 C7        -32.2880   58.6000   74.7180 C.3       1 SUB1        0.127
      8 C8        -31.2290   58.7420   73.6870 C.3       1 SUB1        0.108
      9 C9        -31.5760   59.8940   72.7610 C.3       1 SUB1        0.073
     10 C10       -34.6070   58.9970   77.3860 C.3       1 SUB1        0.079
     11 C11       -34.6830   60.3830   78.0660 C.3       1 SUB1        0.005
     12 N5        -33.3070   58.3900   77.5400 N.4       1 SUB1        0.260
     13 O1A       -30.4860   52.8850   75.4450 O.2       1 SUB1       -0.536
     14 O1B       -30.1630   54.2910   73.7670 O.2       1 SUB1       -0.536
     15 O4        -33.3870   55.8950   78.7170 O.3       1 SUB1       -0.346
     16 O6        -31.4050   56.4270   75.0950 O.3       1 SUB1       -0.205
     17 O7        -33.5140   58.2550   74.0030 O.3       1 SUB1       -0.385
     18 O8        -29.9620   58.9650   74.3120 O.3       1 SUB1       -0.387
     19 O9        -30.4770   59.8680   71.8800 O.3       1 SUB1       -0.392
     20 O10       -34.8870   59.0710   76.0200 O.3       1 SUB1       -0.353
     21 H         -31.8190   54.0039   77.4312 H         1 SUB1        0.175
     22 H         -31.6252   56.6559   78.1619 H         1 SUB1        0.118
     23 H         -33.8518   56.8653   76.1467 H         1 SUB1        0.099
     24 H         -31.0950   58.0694   76.4252 H         1 SUB1        0.083
     25 H         -32.4676   59.5207   75.2731 H         1 SUB1        0.066
     26 H         -31.1663   57.8240   73.1026 H         1 SUB1        0.064
     27 H         -31.7099   60.8472   73.2725 H         1 SUB1        0.058
     28 H         -32.5415   59.7880   72.2664 H         1 SUB1        0.058
     29 H         -35.3593   58.3859   77.8846 H         1 SUB1        0.118
     30 H         -34.4811   60.2750   79.1317 H         1 SUB1        0.031
     31 H         -33.9419   61.0463   77.6199 H         1 SUB1        0.031
     32 H         -35.6793   60.8017   77.9242 H         1 SUB1        0.031
     33 H         -32.6383   59.1070   77.2588 H         1 SUB1        0.205
     34 H         -33.2755   58.0582   78.5040 H         1 SUB1        0.205
     35 H         -32.9988   55.2297   79.2900 H         1 SUB1        0.220
     36 H         -34.2318   58.1521   74.6321 H         1 SUB1        0.210
     37 H         -29.2826   59.0392   73.6379 H         1 SUB1        0.210
     38 H         -29.6669   60.0048   72.3766 H         1 SUB1        0.209
     39 H         -34.8861   58.1869   75.6459 H         1 SUB1        0.215
@<TRIPOS>BOND
     1    2    1 1  
     2    1   13 2  
     3    1   14 2  
     4    3    2 2  
     5   16    2 1  
     6    4    3 1  
     7    5    4 1  
     8    4   15 1  
     9    5    6 1  
    10   12    5 1  
    11    6    7 1  
    12    6   16 1  
    13    7    8 1  
    14    7   17 1  
    15    8    9 1  
    16    8   18 1  
    17    9   19 1  
    18   10   11 1  
    19   10   12 1  
    20   10   20 1  
    21    3   21 1  
    22    4   22 1  
    23    5   23 1  
    24    6   24 1  
    25    7   25 1  
    26    8   26 1  
    27    9   27 1  
    28    9   28 1  
    29   10   29 1  
    30   11   30 1  
    31   11   31 1  
    32   11   32 1  
    33   12   33 1  
    34   12   34 1  
    35   15   35 1  
    36   17   36 1  
    37   18   37 1  
    38   19   38 1  
    39   20   39 1  
@<TRIPOS>SUBSTRUCTURE
     1 SUB1        1 GROUP

