1wcq_ligand
  -I-interpret- 

 39 39  0  0  0  0  0  0  0  0999 V2000
  -30.6010   54.0230   74.9030 C   0  0  0  0  0
  -31.3280   55.1730   75.6770 C   0  0  0  0  0
  -31.8500   54.9810   76.9490 C   0  0  0  0  0
  -32.4740   56.1990   77.6530 C   0  0  0  0  0
  -32.9930   57.2210   76.7160 C   0  0  0  0  0
  -31.8610   57.6120   75.7990 C   0  0  0  0  0
  -32.2880   58.6000   74.7180 C   0  0  0  0  0
  -31.2290   58.7420   73.6870 C   0  0  0  0  0
  -31.5760   59.8940   72.7610 C   0  0  0  0  0
  -34.6070   58.9970   77.3860 C   0  0  0  0  0
  -34.6830   60.3830   78.0660 C   0  0  0  0  0
  -33.3070   58.3900   77.5400 N   0  3  0  0  0
  -30.4860   52.8850   75.4450 O   0  5  0  0  0
  -30.1630   54.2910   73.7670 O   0  0  0  0  0
  -33.3870   55.8950   78.7170 O   0  0  0  0  0
  -31.4050   56.4270   75.0950 O   0  0  0  0  0
  -33.5140   58.2550   74.0030 O   0  0  0  0  0
  -29.9620   58.9650   74.3120 O   0  0  0  0  0
  -30.4770   59.8680   71.8800 O   0  0  0  0  0
  -34.8870   59.0710   76.0200 O   0  0  0  0  0
  -31.8190   54.0039   77.4312 H   0  0  0  0  0
  -31.6252   56.6559   78.1619 H   0  0  0  0  0
  -33.8518   56.8653   76.1467 H   0  0  0  0  0
  -31.0950   58.0694   76.4252 H   0  0  0  0  0
  -32.4676   59.5207   75.2731 H   0  0  0  0  0
  -31.1663   57.8240   73.1026 H   0  0  0  0  0
  -31.7099   60.8472   73.2725 H   0  0  0  0  0
  -32.5415   59.7880   72.2664 H   0  0  0  0  0
  -35.3593   58.3859   77.8846 H   0  0  0  0  0
  -34.4811   60.2750   79.1317 H   0  0  0  0  0
  -33.9419   61.0463   77.6199 H   0  0  0  0  0
  -35.6793   60.8017   77.9242 H   0  0  0  0  0
  -32.6383   59.1070   77.2588 H   0  0  0  0  0
  -33.2755   58.0582   78.5040 H   0  0  0  0  0
  -32.9988   55.2297   79.2900 H   0  0  0  0  0
  -34.2318   58.1521   74.6321 H   0  0  0  0  0
  -29.2826   59.0392   73.6379 H   0  0  0  0  0
  -29.6669   60.0048   72.3766 H   0  0  0  0  0
  -34.8861   58.1869   75.6459 H   0  0  0  0  0
  2  1  1  0  0  0
  1 13  1  0  0  0
  1 14  2  0  0  0
  3  2  2  0  0  0
 16  2  1  0  0  0
  4  3  1  0  0  0
  5  4  1  0  0  0
  4 15  1  0  0  0
  5  6  1  0  0  0
 12  5  1  0  0  0
  6  7  1  0  0  0
  6 16  1  0  0  0
  7  8  1  0  0  0
  7 17  1  0  0  0
  8  9  1  0  0  0
  8 18  1  0  0  0
  9 19  1  0  0  0
 10 11  1  0  0  0
 10 12  1  0  0  0
 10 20  1  0  0  0
  3 21  1  0  0  0
  4 22  1  0  0  0
  5 23  1  0  0  0
  6 24  1  0  0  0
  7 25  1  0  0  0
  8 26  1  0  0  0
  9 27  1  0  0  0
  9 28  1  0  0  0
 10 29  1  0  0  0
 11 30  1  0  0  0
 11 31  1  0  0  0
 11 32  1  0  0  0
 12 33  1  0  0  0
 12 34  1  0  0  0
 15 35  1  0  0  0
 17 36  1  0  0  0
 18 37  1  0  0  0
 19 38  1  0  0  0
 20 39  1  0  0  0
M  END
$$$$
