### 
### Created by X-TOOL on Mon Oct 24 22:39:31 2005
### 

@<TRIPOS>MOLECULE
1hvk_ligand
  116   119     1     0     0
SMALL
GAST_HUCK


@<TRIPOS>ATOM
      1 H411        6.4852   -0.9203   16.2394 H         1 SUB1        0.064
      2 H421        5.9283   -3.5358   17.5275 H         1 SUB1        0.186
      3 H431        4.8155   -2.4129   15.0111 H         1 SUB1        0.060
      4 H441        2.7539   -2.0217   16.2059 H         1 SUB1        0.045
      5 H442        3.4947   -2.5631   17.7502 H         1 SUB1        0.045
      6 H461        2.3569   -3.6531   14.3782 H         1 SUB1        0.056
      7 H471        1.8471   -6.0220   13.8086 H         1 SUB1        0.060
      8 H481        2.3150   -7.8259   15.4458 H         1 SUB1        0.056
      9 H491        3.2349   -7.2723   17.6801 H         1 SUB1        0.060
     10 H501        3.7313   -4.9112   18.2714 H         1 SUB1        0.056
     11 C1          3.4420    3.3640   10.6640 C.2       1 SUB1        0.264
     12 O2          3.1030    4.0650   11.6060 O.2       1 SUB1       -0.400
     13 N3          4.1080    3.8760    9.6230 N.am      1 SUB1       -0.249
     14 C4          4.6590    3.0340    8.5660 C.3       1 SUB1        0.025
     15 C5          4.3760    5.3220    9.6130 C.3       1 SUB1        0.083
     16 C6          5.7860    5.6900    9.9970 C.ar      1 SUB1        0.050
     17 C7          6.6870    6.0180    8.9940 C.ar      1 SUB1       -0.030
     18 N8          6.0940    5.7110   11.2940 N.ar      1 SUB1       -0.296
     19 C9          7.9610    6.3910    9.3940 C.ar      1 SUB1       -0.049
     20 C10         7.3140    6.0700   11.6630 C.ar      1 SUB1        0.003
     21 C11         8.2870    6.4200   10.7470 C.ar      1 SUB1       -0.041
     22 N21         3.1570    2.0630   10.6230 N.am      1 SUB1       -0.251
     23 C22         2.5380    1.3810   11.7760 C.3       1 SUB1        0.133
     24 C23         3.5500    0.4420   12.4210 C.2       1 SUB1        0.202
     25 O24         3.6830   -0.7230   12.0840 O.2       1 SUB1       -0.394
     26 C25         1.1890    0.6750   11.4320 C.3       1 SUB1       -0.007
     27 C26         0.1900    1.6100   10.7090 C.3       1 SUB1       -0.058
     28 C27         0.5290    0.0770   12.6750 C.3       1 SUB1       -0.058
     29 N37         4.2870    1.0030   13.3740 N.am      1 SUB1       -0.278
     30 C38         5.2470    0.2310   14.1980 C.3       1 SUB1        0.080
     31 C39         6.6590    0.8140   14.1100 C.3       1 SUB1        0.007
     32 C40         7.1750    0.9510   12.7060 C.ar      1 SUB1       -0.041
     33 C41         7.6990   -0.1700   12.0450 C.ar      1 SUB1       -0.060
     34 C42         8.1810   -0.0360   10.7380 C.ar      1 SUB1       -0.069
     35 C43         8.1250    1.2070   10.0940 C.ar      1 SUB1       -0.069
     36 C44         7.6020    2.3230   10.7530 C.ar      1 SUB1       -0.069
     37 C45         7.1270    2.1980   12.0640 C.ar      1 SUB1       -0.060
     38 C46         4.7040    0.1060   15.6470 C.3       1 SUB1        0.108
     39 O47         4.7720    1.3930   16.2230 O.3       1 SUB1       -0.387
     40 O48         5.2450   -0.8000   17.8600 O.3       1 SUB1       -0.387
     41 C49         5.4110   -0.9690   16.4710 C.3       1 SUB1        0.108
     42 N50         5.8480   -3.3620   16.5460 N.am      1 SUB1       -0.278
     43 C51         4.8840   -2.3660   16.1080 C.3       1 SUB1        0.080
     44 C52         3.4900   -2.7020   16.6590 C.3       1 SUB1        0.007
     45 C53         3.0970   -4.1240   16.3490 C.ar      1 SUB1       -0.041
     46 C54         2.5550   -4.4390   15.0980 C.ar      1 SUB1       -0.060
     47 C55         2.2680   -5.7770   14.7770 C.ar      1 SUB1       -0.069
     48 C56         2.5240   -6.7940   15.7040 C.ar      1 SUB1       -0.069
     49 C57         3.0480   -6.4830   16.9610 C.ar      1 SUB1       -0.069
     50 C58         3.3320   -5.1530   17.2930 C.ar      1 SUB1       -0.060
     51 N81         7.0960   -6.2180   16.8450 N.am      1 SUB1       -0.251
     52 C82         7.6370   -4.9150   16.4650 C.3       1 SUB1        0.133
     53 C83         6.6290   -4.0560   15.7260 C.2       1 SUB1        0.202
     54 O84         6.5580   -3.9890   14.5120 O.2       1 SUB1       -0.394
     55 C85         8.9600   -5.0190   15.7100 C.3       1 SUB1       -0.007
     56 C86         9.9270   -5.8680   16.5510 C.3       1 SUB1       -0.058
     57 C87         9.5560   -3.6280   15.4470 C.3       1 SUB1       -0.058
     58 C97         6.8980   -6.6250   18.1010 C.2       1 SUB1        0.264
     59 O98         7.2170   -5.9320   19.0590 O.2       1 SUB1       -0.400
     60 N99         6.3220   -7.8510   18.2480 N.am      1 SUB1       -0.249
     61 C2          5.8680   -8.6360   17.0970 C.3       1 SUB1        0.025
     62 C3          6.0170   -8.3880   19.5770 C.3       1 SUB1        0.083
     63 C8          4.6530   -7.9530   20.0750 C.ar      1 SUB1        0.050
     64 C12         3.5500   -8.8050   19.9280 C.ar      1 SUB1       -0.030
     65 N10         4.5730   -6.7420   20.6480 N.ar      1 SUB1       -0.296
     66 C13         2.3010   -8.3770   20.3930 C.ar      1 SUB1       -0.049
     67 C14         3.3660   -6.3450   21.0900 C.ar      1 SUB1        0.003
     68 C15         2.2070   -7.1250   20.9900 C.ar      1 SUB1       -0.041
     69 H611        5.2320   -8.0420   16.4410 H         1 SUB1        0.049
     70 H612        6.7230   -8.9860   16.5170 H         1 SUB1        0.049
     71 H613        5.2890   -9.5090   17.4060 H         1 SUB1        0.049
     72 H621        6.0780   -9.4800   19.5550 H         1 SUB1        0.071
     73 H622        6.7680   -8.0630   20.2940 H         1 SUB1        0.071
     74 H641        3.6570   -9.7530   19.4250 H         1 SUB1        0.065
     75 H661        1.4120   -8.9910   20.2720 H         1 SUB1        0.072
     76 H671        3.2830   -5.3620   21.5440 H         1 SUB1        0.080
     77 H681        1.2610   -6.7520   21.3610 H         1 SUB1        0.065
     78 H141        3.8650    2.6530    7.9250 H         1 SUB1        0.049
     79 H142        5.2200    2.1960    8.9820 H         1 SUB1        0.049
     80 H143        5.3500    3.6010    7.9390 H         1 SUB1        0.049
     81 H151        3.7150    5.8540   10.2980 H         1 SUB1        0.071
     82 H152        4.1330    5.7220    8.6290 H         1 SUB1        0.071
     83 H171        6.3990    5.9640    7.9570 H         1 SUB1        0.065
     84 H191        8.7180    6.6410    8.6540 H         1 SUB1        0.072
     85 H201        7.5760    6.0880   12.7170 H         1 SUB1        0.080
     86 H211        9.2750    6.6850   11.0920 H         1 SUB1        0.065
     87 H221        3.3950    1.5700    9.7820 H         1 SUB1        0.188
     88 H231        2.2790    2.1120   12.5410 H         1 SUB1        0.080
     89 H261        1.4110   -0.1450   10.7470 H         1 SUB1        0.034
     90 H271       -0.7510    1.0990   10.5140 H         1 SUB1        0.023
     91 H272        0.5930    1.9410    9.7500 H         1 SUB1        0.023
     92 H273       -0.0250    2.4940   11.3120 H         1 SUB1        0.023
     93 H281        0.2190    0.8530   13.3760 H         1 SUB1        0.023
     94 H282        1.1950   -0.6050   13.2060 H         1 SUB1        0.023
     95 H283       -0.3590   -0.4930   12.4010 H         1 SUB1        0.023
     96 H291        4.1800    1.9890   13.4910 H         1 SUB1        0.186
     97 H301        5.3210   -0.7810   13.7960 H         1 SUB1        0.060
     98 H311        7.3560    0.1860   14.6680 H         1 SUB1        0.045
     99 H312        6.7180    1.7880   14.5960 H         1 SUB1        0.045
    100 H331        7.7260   -1.1280   12.5530 H         1 SUB1        0.056
    101 H341        8.5940   -0.8820   10.2130 H         1 SUB1        0.060
    102 H351        8.4790    1.3220    9.0790 H         1 SUB1        0.056
    103 H361        7.5640    3.2690   10.2400 H         1 SUB1        0.060
    104 H371        6.7110    3.0600   12.5760 H         1 SUB1        0.056
    105 H381        3.6360   -0.1070   15.6200 H         1 SUB1        0.064
    106 H391        4.4415    1.3566   17.1286 H         1 SUB1        0.210
    107 H401        5.5676    0.0692   18.1170 H         1 SUB1        0.210
    108 H511        6.8520   -6.8720   16.1280 H         1 SUB1        0.188
    109 H521        7.8650   -4.3590   17.3770 H         1 SUB1        0.080
    110 H551        8.7950   -5.5130   14.7500 H         1 SUB1        0.034
    111 H561        9.6260   -6.9170   16.5670 H         1 SUB1        0.023
    112 H562        9.9660   -5.5120   17.5830 H         1 SUB1        0.023
    113 H563       10.9420   -5.8150   16.1630 H         1 SUB1        0.023
    114 H571       10.4920   -3.7080   14.8960 H         1 SUB1        0.023
    115 H572        9.7680   -3.1090   16.3840 H         1 SUB1        0.023
    116 H573        8.8910   -2.9920   14.8620 H         1 SUB1        0.023
@<TRIPOS>BOND
     1   41    1 1  
     2   42    2 1  
     3   43    3 1  
     4   44    4 1  
     5   44    5 1  
     6   46    6 1  
     7   47    7 1  
     8   48    8 1  
     9   49    9 1  
    10   50   10 1  
    11   11   12 2  
    12   11   13 am 
    13   22   11 am 
    14   13   14 1  
    15   13   15 1  
    16   14   78 1  
    17   14   79 1  
    18   14   80 1  
    19   15   16 1  
    20   15   81 1  
    21   15   82 1  
    22   16   17 ar 
    23   16   18 ar 
    24   17   19 ar 
    25   17   83 1  
    26   18   20 ar 
    27   19   21 ar 
    28   19   84 1  
    29   20   21 ar 
    30   20   85 1  
    31   21   86 1  
    32   23   22 1  
    33   22   87 1  
    34   24   23 1  
    35   23   26 1  
    36   23   88 1  
    37   24   25 2  
    38   29   24 am 
    39   26   27 1  
    40   26   28 1  
    41   26   89 1  
    42   27   90 1  
    43   27   91 1  
    44   27   92 1  
    45   28   93 1  
    46   28   94 1  
    47   28   95 1  
    48   30   29 1  
    49   29   96 1  
    50   30   31 1  
    51   38   30 1  
    52   30   97 1  
    53   31   32 1  
    54   31   98 1  
    55   31   99 1  
    56   32   33 ar 
    57   32   37 ar 
    58   33   34 ar 
    59   33  100 1  
    60   34   35 ar 
    61   34  101 1  
    62   36   35 ar 
    63   35  102 1  
    64   37   36 ar 
    65   36  103 1  
    66   37  104 1  
    67   38   39 1  
    68   41   38 1  
    69   38  105 1  
    70   39  106 1  
    71   41   43 1  
    72   43   44 1  
    73   44   45 1  
    74   45   46 ar 
    75   45   50 ar 
    76   46   47 ar 
    77   47   48 ar 
    78   49   48 ar 
    79   50   49 ar 
    80   52   51 1  
    81   51   58 am 
    82   53   52 1  
    83   52   55 1  
    84   53   54 2  
    85   55   56 1  
    86   55   57 1  
    87   58   59 2  
    88   58   60 am 
    89   60   61 1  
    90   61   69 1  
    91   61   70 1  
    92   61   71 1  
    93   60   62 1  
    94   62   63 1  
    95   62   72 1  
    96   62   73 1  
    97   63   64 ar 
    98   63   65 ar 
    99   64   66 ar 
   100   64   74 1  
   101   65   67 ar 
   102   66   68 ar 
   103   66   75 1  
   104   67   68 ar 
   105   67   76 1  
   106   68   77 1  
   107   57  116 1  
   108   57  115 1  
   109   57  114 1  
   110   56  113 1  
   111   56  112 1  
   112   56  111 1  
   113   55  110 1  
   114   52  109 1  
   115   51  108 1  
   116   40  107 1  
   117   42   53 am 
   118   43   42 1  
   119   41   40 1  
@<TRIPOS>SUBSTRUCTURE
     1 SUB1        1 GROUP

