1hvk_ligand
  -I-interpret- 

116119  0  0  0  0  0  0  0  0999 V2000
    6.4852   -0.9203   16.2394 H   0  0  0  0  0
    5.9283   -3.5358   17.5275 H   0  0  0  0  0
    4.8155   -2.4129   15.0111 H   0  0  0  0  0
    2.7539   -2.0217   16.2059 H   0  0  0  0  0
    3.4947   -2.5631   17.7502 H   0  0  0  0  0
    2.3569   -3.6531   14.3782 H   0  0  0  0  0
    1.8471   -6.0220   13.8086 H   0  0  0  0  0
    2.3150   -7.8259   15.4458 H   0  0  0  0  0
    3.2349   -7.2723   17.6801 H   0  0  0  0  0
    3.7313   -4.9112   18.2714 H   0  0  0  0  0
    3.4420    3.3640   10.6640 C   0  0  0  0  0
    3.1030    4.0650   11.6060 O   0  0  0  0  0
    4.1080    3.8760    9.6230 N   0  0  0  0  0
    4.6590    3.0340    8.5660 C   0  0  0  0  0
    4.3760    5.3220    9.6130 C   0  0  0  0  0
    5.7860    5.6900    9.9970 C   0  0  0  0  0
    6.6870    6.0180    8.9940 C   0  0  0  0  0
    6.0940    5.7110   11.2940 N   0  0  0  0  0
    7.9610    6.3910    9.3940 C   0  0  0  0  0
    7.3140    6.0700   11.6630 C   0  0  0  0  0
    8.2870    6.4200   10.7470 C   0  0  0  0  0
    3.1570    2.0630   10.6230 N   0  0  0  0  0
    2.5380    1.3810   11.7760 C   0  0  0  0  0
    3.5500    0.4420   12.4210 C   0  0  0  0  0
    3.6830   -0.7230   12.0840 O   0  0  0  0  0
    1.1890    0.6750   11.4320 C   0  0  0  0  0
    0.1900    1.6100   10.7090 C   0  0  0  0  0
    0.5290    0.0770   12.6750 C   0  0  0  0  0
    4.2870    1.0030   13.3740 N   0  0  0  0  0
    5.2470    0.2310   14.1980 C   0  0  0  0  0
    6.6590    0.8140   14.1100 C   0  0  0  0  0
    7.1750    0.9510   12.7060 C   0  0  0  0  0
    7.6990   -0.1700   12.0450 C   0  0  0  0  0
    8.1810   -0.0360   10.7380 C   0  0  0  0  0
    8.1250    1.2070   10.0940 C   0  0  0  0  0
    7.6020    2.3230   10.7530 C   0  0  0  0  0
    7.1270    2.1980   12.0640 C   0  0  0  0  0
    4.7040    0.1060   15.6470 C   0  0  0  0  0
    4.7720    1.3930   16.2230 O   0  0  0  0  0
    5.2450   -0.8000   17.8600 O   0  0  0  0  0
    5.4110   -0.9690   16.4710 C   0  0  0  0  0
    5.8480   -3.3620   16.5460 N   0  0  0  0  0
    4.8840   -2.3660   16.1080 C   0  0  0  0  0
    3.4900   -2.7020   16.6590 C   0  0  0  0  0
    3.0970   -4.1240   16.3490 C   0  0  0  0  0
    2.5550   -4.4390   15.0980 C   0  0  0  0  0
    2.2680   -5.7770   14.7770 C   0  0  0  0  0
    2.5240   -6.7940   15.7040 C   0  0  0  0  0
    3.0480   -6.4830   16.9610 C   0  0  0  0  0
    3.3320   -5.1530   17.2930 C   0  0  0  0  0
    7.0960   -6.2180   16.8450 N   0  0  0  0  0
    7.6370   -4.9150   16.4650 C   0  0  0  0  0
    6.6290   -4.0560   15.7260 C   0  0  0  0  0
    6.5580   -3.9890   14.5120 O   0  0  0  0  0
    8.9600   -5.0190   15.7100 C   0  0  0  0  0
    9.9270   -5.8680   16.5510 C   0  0  0  0  0
    9.5560   -3.6280   15.4470 C   0  0  0  0  0
    6.8980   -6.6250   18.1010 C   0  0  0  0  0
    7.2170   -5.9320   19.0590 O   0  0  0  0  0
    6.3220   -7.8510   18.2480 N   0  0  0  0  0
    5.8680   -8.6360   17.0970 C   0  0  0  0  0
    6.0170   -8.3880   19.5770 C   0  0  0  0  0
    4.6530   -7.9530   20.0750 C   0  0  0  0  0
    3.5500   -8.8050   19.9280 C   0  0  0  0  0
    4.5730   -6.7420   20.6480 N   0  0  0  0  0
    2.3010   -8.3770   20.3930 C   0  0  0  0  0
    3.3660   -6.3450   21.0900 C   0  0  0  0  0
    2.2070   -7.1250   20.9900 C   0  0  0  0  0
    5.2320   -8.0420   16.4410 H   0  0  0  0  0
    6.7230   -8.9860   16.5170 H   0  0  0  0  0
    5.2890   -9.5090   17.4060 H   0  0  0  0  0
    6.0780   -9.4800   19.5550 H   0  0  0  0  0
    6.7680   -8.0630   20.2940 H   0  0  0  0  0
    3.6570   -9.7530   19.4250 H   0  0  0  0  0
    1.4120   -8.9910   20.2720 H   0  0  0  0  0
    3.2830   -5.3620   21.5440 H   0  0  0  0  0
    1.2610   -6.7520   21.3610 H   0  0  0  0  0
    3.8650    2.6530    7.9250 H   0  0  0  0  0
    5.2200    2.1960    8.9820 H   0  0  0  0  0
    5.3500    3.6010    7.9390 H   0  0  0  0  0
    3.7150    5.8540   10.2980 H   0  0  0  0  0
    4.1330    5.7220    8.6290 H   0  0  0  0  0
    6.3990    5.9640    7.9570 H   0  0  0  0  0
    8.7180    6.6410    8.6540 H   0  0  0  0  0
    7.5760    6.0880   12.7170 H   0  0  0  0  0
    9.2750    6.6850   11.0920 H   0  0  0  0  0
    3.3950    1.5700    9.7820 H   0  0  0  0  0
    2.2790    2.1120   12.5410 H   0  0  0  0  0
    1.4110   -0.1450   10.7470 H   0  0  0  0  0
   -0.7510    1.0990   10.5140 H   0  0  0  0  0
    0.5930    1.9410    9.7500 H   0  0  0  0  0
   -0.0250    2.4940   11.3120 H   0  0  0  0  0
    0.2190    0.8530   13.3760 H   0  0  0  0  0
    1.1950   -0.6050   13.2060 H   0  0  0  0  0
   -0.3590   -0.4930   12.4010 H   0  0  0  0  0
    4.1800    1.9890   13.4910 H   0  0  0  0  0
    5.3210   -0.7810   13.7960 H   0  0  0  0  0
    7.3560    0.1860   14.6680 H   0  0  0  0  0
    6.7180    1.7880   14.5960 H   0  0  0  0  0
    7.7260   -1.1280   12.5530 H   0  0  0  0  0
    8.5940   -0.8820   10.2130 H   0  0  0  0  0
    8.4790    1.3220    9.0790 H   0  0  0  0  0
    7.5640    3.2690   10.2400 H   0  0  0  0  0
    6.7110    3.0600   12.5760 H   0  0  0  0  0
    3.6360   -0.1070   15.6200 H   0  0  0  0  0
    4.4415    1.3566   17.1286 H   0  0  0  0  0
    5.5676    0.0692   18.1170 H   0  0  0  0  0
    6.8520   -6.8720   16.1280 H   0  0  0  0  0
    7.8650   -4.3590   17.3770 H   0  0  0  0  0
    8.7950   -5.5130   14.7500 H   0  0  0  0  0
    9.6260   -6.9170   16.5670 H   0  0  0  0  0
    9.9660   -5.5120   17.5830 H   0  0  0  0  0
   10.9420   -5.8150   16.1630 H   0  0  0  0  0
   10.4920   -3.7080   14.8960 H   0  0  0  0  0
    9.7680   -3.1090   16.3840 H   0  0  0  0  0
    8.8910   -2.9920   14.8620 H   0  0  0  0  0
 41  1  1  0  0  0
 42  2  1  0  0  0
 43  3  1  0  0  0
 44  4  1  0  0  0
 44  5  1  0  0  0
 46  6  1  0  0  0
 47  7  1  0  0  0
 48  8  1  0  0  0
 49  9  1  0  0  0
 50 10  1  0  0  0
 11 12  2  0  0  0
 11 13  1  0  0  0
 22 11  1  0  0  0
 13 14  1  0  0  0
 13 15  1  0  0  0
 14 78  1  0  0  0
 14 79  1  0  0  0
 14 80  1  0  0  0
 15 16  1  0  0  0
 15 81  1  0  0  0
 15 82  1  0  0  0
 16 17  4  0  0  0
 16 18  4  0  0  0
 17 19  4  0  0  0
 17 83  1  0  0  0
 18 20  4  0  0  0
 19 21  4  0  0  0
 19 84  1  0  0  0
 20 21  4  0  0  0
 20 85  1  0  0  0
 21 86  1  0  0  0
 23 22  1  0  0  0
 22 87  1  0  0  0
 24 23  1  0  0  0
 23 26  1  0  0  0
 23 88  1  0  0  0
 24 25  2  0  0  0
 29 24  1  0  0  0
 26 27  1  0  0  0
 26 28  1  0  0  0
 26 89  1  0  0  0
 27 90  1  0  0  0
 27 91  1  0  0  0
 27 92  1  0  0  0
 28 93  1  0  0  0
 28 94  1  0  0  0
 28 95  1  0  0  0
 30 29  1  0  0  0
 29 96  1  0  0  0
 30 31  1  0  0  0
 38 30  1  0  0  0
 30 97  1  0  0  0
 31 32  1  0  0  0
 31 98  1  0  0  0
 31 99  1  0  0  0
 32 33  4  0  0  0
 32 37  4  0  0  0
 33 34  4  0  0  0
 33100  1  0  0  0
 34 35  4  0  0  0
 34101  1  0  0  0
 36 35  4  0  0  0
 35102  1  0  0  0
 37 36  4  0  0  0
 36103  1  0  0  0
 37104  1  0  0  0
 38 39  1  0  0  0
 41 38  1  0  0  0
 38105  1  0  0  0
 39106  1  0  0  0
 41 43  1  0  0  0
 43 44  1  0  0  0
 44 45  1  0  0  0
 45 46  4  0  0  0
 45 50  4  0  0  0
 46 47  4  0  0  0
 47 48  4  0  0  0
 49 48  4  0  0  0
 50 49  4  0  0  0
 52 51  1  0  0  0
 51 58  1  0  0  0
 53 52  1  0  0  0
 52 55  1  0  0  0
 53 54  2  0  0  0
 55 56  1  0  0  0
 55 57  1  0  0  0
 58 59  2  0  0  0
 58 60  1  0  0  0
 60 61  1  0  0  0
 61 69  1  0  0  0
 61 70  1  0  0  0
 61 71  1  0  0  0
 60 62  1  0  0  0
 62 63  1  0  0  0
 62 72  1  0  0  0
 62 73  1  0  0  0
 63 64  4  0  0  0
 63 65  4  0  0  0
 64 66  4  0  0  0
 64 74  1  0  0  0
 65 67  4  0  0  0
 66 68  4  0  0  0
 66 75  1  0  0  0
 67 68  4  0  0  0
 67 76  1  0  0  0
 68 77  1  0  0  0
 57116  1  0  0  0
 57115  1  0  0  0
 57114  1  0  0  0
 56113  1  0  0  0
 56112  1  0  0  0
 56111  1  0  0  0
 55110  1  0  0  0
 52109  1  0  0  0
 51108  1  0  0  0
 40107  1  0  0  0
 42 53  1  0  0  0
 43 42  1  0  0  0
 41 40  1  0  0  0
M  END
$$$$
