### 
### Created by X-TOOL on Tue Oct 25 02:03:12 2005
### 

@<TRIPOS>MOLECULE
1we2_ligand
   21    21     1     0     0
SMALL
GAST_HUCK


@<TRIPOS>ATOM
      1 C2         26.4290   33.2040   30.5960 C.2       1 SUB1       -0.042
      2 C3         26.8270   34.4880   29.8570 C.3       1 SUB1        0.112
      3 O3         26.4230   34.3770   28.4570 O.3       1 SUB1       -0.375
      4 C4         26.1820   35.7480   30.3530 C.3       1 SUB1        0.119
      5 O4         26.2460   36.6930   29.2460 O.3       1 SUB1       -0.384
      6 C5         24.7490   35.4660   30.6760 C.3       1 SUB1        0.094
      7 C1         25.4110   33.2580   31.5350 C.2       1 SUB1       -0.035
      8 C6         24.7510   34.4860   31.8360 C.3       1 SUB1        0.004
      9 C          24.9920   32.0690   32.2090 C.2       1 SUB1        0.038
     10 O1         25.8670   31.1210   32.4560 O.co2     1 SUB1       -0.569
     11 O2         23.7350   32.0920   32.5010 O.co2     1 SUB1       -0.569
     12 O5         24.0790   36.7190   31.1310 O.3       1 SUB1       -0.387
     13 H11        26.9384   32.2647   30.3861 H         1 SUB1        0.062
     14 H21        27.9192   34.5975   29.9284 H         1 SUB1        0.082
     15 H31        26.6672   35.1699   27.9943 H         1 SUB1        0.214
     16 H41        26.7056   36.1393   31.2377 H         1 SUB1        0.068
     17 H51        25.7776   36.3373   28.5000 H         1 SUB1        0.210
     18 H61        24.2277   35.0460   29.8032 H         1 SUB1        0.064
     19 H81        23.7084   34.2646   32.1080 H         1 SUB1        0.042
     20 H82        25.2608   34.9563   32.6897 H         1 SUB1        0.042
     21 H121       24.0671   37.3471   30.4184 H         1 SUB1        0.210
@<TRIPOS>BOND
     1    1    2 1  
     2    1    7 2  
     3    2    3 1  
     4    2    4 1  
     5    4    5 1  
     6    4    6 1  
     7    6    8 1  
     8    6   12 1  
     9    7    8 1  
    10    7    9 1  
    11    9   10 2  
    12    9   11 2  
    13    1   13 1  
    14    2   14 1  
    15    3   15 1  
    16    4   16 1  
    17    5   17 1  
    18    6   18 1  
    19    8   19 1  
    20    8   20 1  
    21   12   21 1  
@<TRIPOS>SUBSTRUCTURE
     1 SUB1        1 GROUP

