1wei_ligand
  -I-interpret- 

 15 16  0  0  0  0  0  0  0  0999 V2000
   14.8780    2.6360   19.1250 N   0  0  0  0  0
   14.3560    1.8470   18.1700 C   0  0  0  0  0
   15.0610    0.7300   17.9400 N   0  0  0  0  0
   16.1080    0.8280   18.8190 C   0  0  0  0  0
   17.2250   -0.0050   19.1040 C   0  0  0  0  0
   17.4230   -1.1510   18.4600 N   0  0  0  0  0
   18.1060    0.4230   20.0850 N   0  0  0  0  0
   17.8880    1.5950   20.7320 C   0  0  0  0  0
   16.8590    2.4590   20.5360 N   0  0  0  0  0
   16.0080    2.0010   19.5590 C   0  0  0  0  0
   13.4421    2.0931   17.6313 H   0  0  0  0  0
   14.8631   -0.0219   17.2644 H   0  0  0  0  0
   18.2408   -1.7346   18.6869 H   0  0  0  0  0
   16.7586   -1.4553   17.7341 H   0  0  0  0  0
   18.6142    1.8720   21.4877 H   0  0  0  0  0
  1  2  2  0  0  0
  1 10  1  0  0  0
  2  3  1  0  0  0
  3  4  1  0  0  0
  4  5  4  0  0  0
  4 10  4  0  0  0
  5  6  1  0  0  0
  5  7  4  0  0  0
  7  8  4  0  0  0
  8  9  4  0  0  0
  9 10  4  0  0  0
  2 11  1  0  0  0
  3 12  1  0  0  0
  6 13  1  0  0  0
  6 14  1  0  0  0
  8 15  1  0  0  0
M  END
$$$$
