### 
### Created by X-TOOL on Mon Oct 24 21:59:22 2005
### 

@<TRIPOS>MOLECULE
1wei_ligand
   15    16     1     0     0
SMALL
GAST_HUCK


@<TRIPOS>ATOM
      1 N9         14.8780    2.6360   19.1250 N.2       1 SUB1       -0.286
      2 C8         14.3560    1.8470   18.1700 C.2       1 SUB1        0.111
      3 N7         15.0610    0.7300   17.9400 N.pl3     1 SUB1       -0.241
      4 C5         16.1080    0.8280   18.8190 C.ar      1 SUB1        0.154
      5 C6         17.2250   -0.0050   19.1040 C.ar      1 SUB1        0.152
      6 N6         17.4230   -1.1510   18.4600 N.pl3     1 SUB1       -0.315
      7 N1         18.1060    0.4230   20.0850 N.ar      1 SUB1       -0.269
      8 C2         17.8880    1.5950   20.7320 C.ar      1 SUB1        0.050
      9 N3         16.8590    2.4590   20.5360 N.ar      1 SUB1       -0.295
     10 C4         16.0080    2.0010   19.5590 C.ar      1 SUB1        0.102
     11 H21        13.4421    2.0931   17.6313 H         1 SUB1        0.140
     12 H31        14.8631   -0.0219   17.2644 H         1 SUB1        0.238
     13 H61        18.2408   -1.7346   18.6869 H         1 SUB1        0.180
     14 H62        16.7586   -1.4553   17.7341 H         1 SUB1        0.180
     15 H81        18.6142    1.8720   21.4877 H         1 SUB1        0.097
@<TRIPOS>BOND
     1    1    2 2  
     2    1   10 1  
     3    2    3 1  
     4    3    4 1  
     5    4    5 ar 
     6    4   10 ar 
     7    5    6 1  
     8    5    7 ar 
     9    7    8 ar 
    10    8    9 ar 
    11    9   10 ar 
    12    2   11 1  
    13    3   12 1  
    14    6   13 1  
    15    6   14 1  
    16    8   15 1  
@<TRIPOS>SUBSTRUCTURE
     1 SUB1        1 GROUP

