### 
### Created by X-TOOL on Tue Oct 25 01:53:20 2005
### 

@<TRIPOS>MOLECULE
1xka_ligand
   54    56     1     0     0
SMALL
GAST_HUCK


@<TRIPOS>ATOM
      1 H141       -3.1172   25.8423   16.2650 H         1 SUB1        0.084
      2 H151       -3.2529   23.3548   16.4053 H         1 SUB1        0.082
      3 H171       -0.3029   23.3739   19.5767 H         1 SUB1        0.082
      4 H181       -0.1755   25.8538   19.4331 H         1 SUB1        0.084
      5 H191       -2.8562   21.4696   18.2533 H         1 SUB1        0.175
      6 H192       -1.6554   21.3441   17.1343 H         1 SUB1        0.175
      7 H201       -1.3111   17.3074   18.4259 H         1 SUB1        0.069
      8 H211        0.6232   19.4249   17.9257 H         1 SUB1        0.033
      9 H212        0.7272   18.8817   19.6348 H         1 SUB1        0.033
     10 C1C         0.5200   16.4390   19.1710 C.2       1 SUB1        0.042
     11 O2          0.0480   15.3010   19.3010 O.co2     1 SUB1       -0.565
     12 O3          1.6960   16.7720   19.7870 O.co2     1 SUB1       -0.565
     13 N1P        -1.6370   26.0050   17.8390 N.ar      1 SUB1       -0.290
     14 C2P        -2.5080   25.3040   16.9820 C.ar      1 SUB1        0.023
     15 C3P        -2.5830   23.8980   17.0620 C.ar      1 SUB1        0.017
     16 C4P        -1.7900   23.1960   17.9930 C.ar      1 SUB1        0.029
     17 C5P        -0.9130   23.9090   18.8580 C.ar      1 SUB1        0.017
     18 C6P        -0.8420   25.3070   18.7760 C.ar      1 SUB1        0.023
     19 N1         -1.9020   21.7140   18.0390 N.4       1 SUB1        0.343
     20 C1         -0.2300   17.4660   18.2990 C.3       1 SUB1        0.031
     21 C2          0.0960   18.8970   18.7340 C.3       1 SUB1       -0.025
     22 C3         -1.2270   19.5940   19.0360 C.3       1 SUB1       -0.014
     23 C4         -1.0180   21.1040   19.0560 C.3       1 SUB1       -0.033
     24 N1A         4.9330   20.3120   10.3410 N.pl3     1 SUB1       -0.200
     25 N2A         3.1740   18.8870   10.0250 N.pl3     1 SUB1       -0.200
     26 C1A         4.0810   19.4230   10.8170 C.cat     1 SUB1        0.316
     27 C1D         0.7180   16.7840   14.0710 C.ar      1 SUB1       -0.061
     28 C2D        -0.4850   16.2740   14.6320 C.ar      1 SUB1       -0.067
     29 C3D        -0.7800   16.5030   16.0010 C.ar      1 SUB1       -0.057
     30 C4D         0.1240   17.2410   16.8200 C.ar      1 SUB1       -0.025
     31 C5D         1.3390   17.7560   16.2610 C.ar      1 SUB1       -0.049
     32 C6D         1.6390   17.5290   14.8830 C.ar      1 SUB1       -0.024
     33 C1B         5.3300   18.7330   14.4360 C.ar      1 SUB1       -0.057
     34 C2B         4.1470   18.2120   15.0370 C.ar      1 SUB1       -0.054
     35 C3B         2.9490   18.0890   14.2630 C.ar      1 SUB1       -0.015
     36 C4B         2.9520   18.4890   12.9010 C.ar      1 SUB1        0.001
     37 C5B         4.1260   19.0050   12.2990 C.ar      1 SUB1        0.186
     38 C6B         5.3190   19.1300   13.0650 C.ar      1 SUB1       -0.007
     39 H221       -1.5993   19.2632   20.0168 H         1 SUB1        0.031
     40 H222       -1.9619   19.3367   18.2590 H         1 SUB1        0.031
     41 H231        0.0315   21.3364   18.8226 H         1 SUB1        0.072
     42 H232       -1.2688   21.5001   20.0511 H         1 SUB1        0.072
     43 H241        4.8931   20.5835    9.3482 H         1 SUB1        0.192
     44 H242        5.6377   20.7341   10.9624 H         1 SUB1        0.192
     45 H251        2.5099   18.1935   10.3978 H         1 SUB1        0.192
     46 H252        3.1293   19.1616    9.0333 H         1 SUB1        0.192
     47 H271        0.9412   16.6095   13.0247 H         1 SUB1        0.057
     48 H281       -1.1758   15.7111   14.0147 H         1 SUB1        0.060
     49 H291       -1.6981   16.1145   16.4266 H         1 SUB1        0.056
     50 H311        2.0284   18.3162   16.8822 H         1 SUB1        0.057
     51 H331        6.2381   18.8277   15.0203 H         1 SUB1        0.062
     52 H341        4.1545   17.9096   16.0779 H         1 SUB1        0.062
     53 H361        2.0449   18.3985   12.3144 H         1 SUB1        0.067
     54 H381        6.2184   19.5263   12.6077 H         1 SUB1        0.067
@<TRIPOS>BOND
     1   14    1 1  
     2   15    2 1  
     3   17    3 1  
     4   18    4 1  
     5   19    5 1  
     6   19    6 1  
     7   20    7 1  
     8   21    8 1  
     9   20   10 1  
    10   10   12 2  
    11   10   11 2  
    12   20   30 1  
    13   21   20 1  
    14   22   21 1  
    15   23   22 1  
    16   19   23 1  
    17   16   19 1  
    18   16   17 ar 
    19   15   16 ar 
    20   14   15 ar 
    21   13   14 ar 
    22   13   18 ar 
    23   18   17 ar 
    24   30   31 ar 
    25   30   29 ar 
    26   29   28 ar 
    27   28   27 ar 
    28   27   32 ar 
    29   32   35 ar 
    30   32   31 ar 
    31   35   36 ar 
    32   35   34 ar 
    33   34   33 ar 
    34   33   38 ar 
    35   38   37 ar 
    36   37   26 1  
    37   37   36 ar 
    38   26   25 1  
    39   26   24 1  
    40   21    9 1  
    41   22   39 1  
    42   22   40 1  
    43   23   41 1  
    44   23   42 1  
    45   24   43 1  
    46   24   44 1  
    47   25   45 1  
    48   25   46 1  
    49   27   47 1  
    50   28   48 1  
    51   29   49 1  
    52   31   50 1  
    53   33   51 1  
    54   34   52 1  
    55   36   53 1  
    56   38   54 1  
@<TRIPOS>SUBSTRUCTURE
     1 SUB1        1 GROUP

