1xka_ligand
  -I-interpret- 

 54 56  0  0  0  0  0  0  0  0999 V2000
   -3.1172   25.8423   16.2650 H   0  0  0  0  0
   -3.2529   23.3548   16.4053 H   0  0  0  0  0
   -0.3029   23.3739   19.5767 H   0  0  0  0  0
   -0.1755   25.8538   19.4331 H   0  0  0  0  0
   -2.8562   21.4696   18.2533 H   0  0  0  0  0
   -1.6554   21.3441   17.1343 H   0  0  0  0  0
   -1.3111   17.3074   18.4259 H   0  0  0  0  0
    0.6232   19.4249   17.9257 H   0  0  0  0  0
    0.7272   18.8817   19.6348 H   0  0  0  0  0
    0.5200   16.4390   19.1710 C   0  0  0  0  0
    0.0480   15.3010   19.3010 O   0  0  0  0  0
    1.6960   16.7720   19.7870 O   0  5  0  0  0
   -1.6370   26.0050   17.8390 N   0  0  0  0  0
   -2.5080   25.3040   16.9820 C   0  0  0  0  0
   -2.5830   23.8980   17.0620 C   0  0  0  0  0
   -1.7900   23.1960   17.9930 C   0  0  0  0  0
   -0.9130   23.9090   18.8580 C   0  0  0  0  0
   -0.8420   25.3070   18.7760 C   0  0  0  0  0
   -1.9020   21.7140   18.0390 N   0  3  0  0  0
   -0.2300   17.4660   18.2990 C   0  0  0  0  0
    0.0960   18.8970   18.7340 C   0  0  0  0  0
   -1.2270   19.5940   19.0360 C   0  0  0  0  0
   -1.0180   21.1040   19.0560 C   0  0  0  0  0
    4.9330   20.3120   10.3410 N   0  0  0  0  0
    3.1740   18.8870   10.0250 N   0  0  0  0  0
    4.0810   19.4230   10.8170 C   0  3  0  0  0
    0.7180   16.7840   14.0710 C   0  0  0  0  0
   -0.4850   16.2740   14.6320 C   0  0  0  0  0
   -0.7800   16.5030   16.0010 C   0  0  0  0  0
    0.1240   17.2410   16.8200 C   0  0  0  0  0
    1.3390   17.7560   16.2610 C   0  0  0  0  0
    1.6390   17.5290   14.8830 C   0  0  0  0  0
    5.3300   18.7330   14.4360 C   0  0  0  0  0
    4.1470   18.2120   15.0370 C   0  0  0  0  0
    2.9490   18.0890   14.2630 C   0  0  0  0  0
    2.9520   18.4890   12.9010 C   0  0  0  0  0
    4.1260   19.0050   12.2990 C   0  0  0  0  0
    5.3190   19.1300   13.0650 C   0  0  0  0  0
   -1.5993   19.2632   20.0168 H   0  0  0  0  0
   -1.9619   19.3367   18.2590 H   0  0  0  0  0
    0.0315   21.3364   18.8226 H   0  0  0  0  0
   -1.2688   21.5001   20.0511 H   0  0  0  0  0
    4.8931   20.5835    9.3482 H   0  0  0  0  0
    5.6377   20.7341   10.9624 H   0  0  0  0  0
    2.5099   18.1935   10.3978 H   0  0  0  0  0
    3.1293   19.1616    9.0333 H   0  0  0  0  0
    0.9412   16.6095   13.0247 H   0  0  0  0  0
   -1.1758   15.7111   14.0147 H   0  0  0  0  0
   -1.6981   16.1145   16.4266 H   0  0  0  0  0
    2.0284   18.3162   16.8822 H   0  0  0  0  0
    6.2381   18.8277   15.0203 H   0  0  0  0  0
    4.1545   17.9096   16.0779 H   0  0  0  0  0
    2.0449   18.3985   12.3144 H   0  0  0  0  0
    6.2184   19.5263   12.6077 H   0  0  0  0  0
 14  1  1  0  0  0
 15  2  1  0  0  0
 17  3  1  0  0  0
 18  4  1  0  0  0
 19  5  1  0  0  0
 19  6  1  0  0  0
 20  7  1  0  0  0
 21  8  1  0  0  0
 20 10  1  0  0  0
 10 12  1  0  0  0
 10 11  2  0  0  0
 20 30  1  0  0  0
 21 20  1  0  0  0
 22 21  1  0  0  0
 23 22  1  0  0  0
 19 23  1  0  0  0
 16 19  1  0  0  0
 16 17  4  0  0  0
 15 16  4  0  0  0
 14 15  4  0  0  0
 13 14  4  0  0  0
 13 18  4  0  0  0
 18 17  4  0  0  0
 30 31  4  0  0  0
 30 29  4  0  0  0
 29 28  4  0  0  0
 28 27  4  0  0  0
 27 32  4  0  0  0
 32 35  4  0  0  0
 32 31  4  0  0  0
 35 36  4  0  0  0
 35 34  4  0  0  0
 34 33  4  0  0  0
 33 38  4  0  0  0
 38 37  4  0  0  0
 37 26  1  0  0  0
 37 36  4  0  0  0
 26 25  1  0  0  0
 26 24  1  0  0  0
 21  9  1  0  0  0
 22 39  1  0  0  0
 22 40  1  0  0  0
 23 41  1  0  0  0
 23 42  1  0  0  0
 24 43  1  0  0  0
 24 44  1  0  0  0
 25 45  1  0  0  0
 25 46  1  0  0  0
 27 47  1  0  0  0
 28 48  1  0  0  0
 29 49  1  0  0  0
 31 50  1  0  0  0
 33 51  1  0  0  0
 34 52  1  0  0  0
 36 53  1  0  0  0
 38 54  1  0  0  0
M  END
$$$$
