1c5z_ligand
  -I-interpret- 

 18 18  0  0  0  0  0  0  0  0999 V2000
    8.7740    0.7720   25.1310 C   0  0  0  0  0
    8.6590    1.9420   25.9110 C   0  0  0  0  0
    9.0010    3.1910   25.3970 C   0  0  0  0  0
    9.4630    3.2990   24.0930 C   0  0  0  0  0
    9.5890    2.1720   23.3030 C   0  0  0  0  0
    9.2490    0.9350   23.8170 C   0  0  0  0  0
    8.4270   -0.4950   25.6370 C   0  3  0  0  0
    7.8210   -0.6090   26.8000 N   0  0  0  0  0
    8.7180   -1.5550   24.9310 N   0  0  0  0  0
    7.6160    0.2110   27.3470 H   0  0  0  0  0
    7.5260   -1.4740   27.1890 H   0  0  0  0  0
    9.1850   -1.4790   24.0380 H   0  0  0  0  0
    8.5180   -2.4810   25.2080 H   0  0  0  0  0
    8.3040    1.8860   26.9280 H   0  0  0  0  0
    8.9040    4.0730   26.0130 H   0  0  0  0  0
    9.7290    4.2630   23.6890 H   0  0  0  0  0
    9.9530    2.2530   22.2890 H   0  0  0  0  0
    9.3680    0.0890   23.1710 H   0  0  0  0  0
  1  2  4  0  0  0
  1  6  4  0  0  0
  1  7  1  0  0  0
  2  3  4  0  0  0
  2 14  1  0  0  0
  3  4  4  0  0  0
  3 15  1  0  0  0
  4  5  4  0  0  0
  4 16  1  0  0  0
  5  6  4  0  0  0
  5 17  1  0  0  0
  6 18  1  0  0  0
  7  8  1  0  0  0
  7  9  1  0  0  0
  8 10  1  0  0  0
  8 11  1  0  0  0
  9 12  1  0  0  0
  9 13  1  0  0  0
M  END
$$$$
