### 
### Created by X-TOOL on Mon Oct 24 22:51:43 2005
### 

@<TRIPOS>MOLECULE
1c5z_ligand
   18    18     1     0     0
SMALL
GAST_HUCK


@<TRIPOS>ATOM
      1 C1          8.7740    0.7720   25.1310 C.ar      1 SUB1        0.186
      2 C2          8.6590    1.9420   25.9110 C.ar      1 SUB1       -0.007
      3 C3          9.0010    3.1910   25.3970 C.ar      1 SUB1       -0.057
      4 C4          9.4630    3.2990   24.0930 C.ar      1 SUB1       -0.062
      5 C5          9.5890    2.1720   23.3030 C.ar      1 SUB1       -0.057
      6 C6          9.2490    0.9350   23.8170 C.ar      1 SUB1       -0.007
      7 C           8.4270   -0.4950   25.6370 C.cat     1 SUB1        0.316
      8 N1          7.8210   -0.6090   26.8000 N.pl3     1 SUB1       -0.200
      9 N2          8.7180   -1.5550   24.9310 N.pl3     1 SUB1       -0.200
     10 H81         7.6160    0.2110   27.3470 H         1 SUB1        0.192
     11 H82         7.5260   -1.4740   27.1890 H         1 SUB1        0.192
     12 H91         9.1850   -1.4790   24.0380 H         1 SUB1        0.192
     13 H92         8.5180   -2.4810   25.2080 H         1 SUB1        0.192
     14 H21         8.3040    1.8860   26.9280 H         1 SUB1        0.066
     15 H31         8.9040    4.0730   26.0130 H         1 SUB1        0.062
     16 H41         9.7290    4.2630   23.6890 H         1 SUB1        0.062
     17 H51         9.9530    2.2530   22.2890 H         1 SUB1        0.062
     18 H61         9.3680    0.0890   23.1710 H         1 SUB1        0.066
@<TRIPOS>BOND
     1    1    2 ar 
     2    1    6 ar 
     3    1    7 1  
     4    2    3 ar 
     5    2   14 1  
     6    3    4 ar 
     7    3   15 1  
     8    4    5 ar 
     9    4   16 1  
    10    5    6 ar 
    11    5   17 1  
    12    6   18 1  
    13    7    8 1  
    14    7    9 1  
    15    8   10 1  
    16    8   11 1  
    17    9   12 1  
    18    9   13 1  
@<TRIPOS>SUBSTRUCTURE
     1 SUB1        1 GROUP

