2cf8_ligand
  -I-interpret- 

 64 68  0  0  0  0  0  0  0  0999 V2000
   11.2130   -9.7810   24.4970 N   0  0  0  0  0
   11.4690  -10.9100   23.8580 C   0  3  0  0  0
   10.6980  -11.9810   24.1280 N   0  0  0  0  0
   12.5830  -11.0070   22.8770 C   0  0  0  0  0
   13.4160   -9.9420   22.5970 C   0  0  0  0  0
   14.4290  -10.0250   21.6580 C   0  0  0  0  0
   14.6840  -11.2280   20.9870 C   0  0  0  0  0
   13.8310  -12.3010   21.2550 C   0  0  0  0  0
   12.8080  -12.2040   22.1780 C   0  0  0  0  0
   15.7930  -11.3010   19.9910 C   0  0  0  0  0
   15.6460  -12.3720   18.9700 N   0  0  0  0  0
   14.6030  -12.0510   17.9510 C   0  0  0  0  0
   15.3280  -11.7040   16.6590 C   0  0  0  0  0
   16.8160  -11.6110   16.9890 C   0  0  0  0  0
   16.9400  -12.4380   18.2670 C   0  0  0  0  0
   17.9750  -12.0190   19.3000 C   0  0  0  0  0
   18.9400  -13.1390   19.7350 C   0  0  0  0  0
   18.5180  -13.4530   21.0880 N   0  0  0  0  0
   17.3940  -12.6890   21.5140 C   0  0  0  0  0
   16.8000  -12.9240   22.5220 O   0  0  0  0  0
   17.2010  -11.5700   20.5300 C   0  0  0  0  0
   18.7170  -14.8000   21.6700 C   0  0  0  0  0
   19.7090  -14.5870   22.8080 C   0  0  0  0  0
   19.2720  -14.2150   24.0600 C   0  0  0  0  0
   20.1440  -13.9810   25.1150 C   0  0  0  0  0
   21.5010  -14.1390   24.8870 C   0  0  0  0  0
   21.9750  -14.5130   23.6410 C   0  0  0  0  0
   21.0810  -14.7340   22.5960 C   0  0  0  0  0
   20.4070  -12.6960   19.7520 C   0  0  0  0  0
   20.6950  -11.5250   20.6910 C   0  0  0  0  0
   20.8590  -12.4130   18.3410 C   0  0  0  0  0
   22.6480  -13.8830   26.2230 Cl  0  0  0  0  0
   11.7844   -8.9546   24.3212 H   0  0  0  0  0
   10.4441   -9.7365   25.1657 H   0  0  0  0  0
   10.8756  -12.8687   23.6582 H   0  0  0  0  0
    9.9365  -11.9043   24.8023 H   0  0  0  0  0
   13.2708   -9.0044   23.1336 H   0  0  0  0  0
   15.0345   -9.1457   21.4383 H   0  0  0  0  0
   13.9765  -13.2402   20.7214 H   0  0  0  0  0
   12.1682  -13.0662   22.3659 H   0  0  0  0  0
   15.7006  -10.2901   19.5939 H   0  0  0  0  0
   13.9873  -11.2147   18.2822 H   0  0  0  0  0
   13.9379  -12.9015   17.8014 H   0  0  0  0  0
   14.9639  -10.7590   16.2558 H   0  0  0  0  0
   15.1493  -12.4668   15.9011 H   0  0  0  0  0
   17.1556  -10.5833   17.1176 H   0  0  0  0  0
   17.4501  -11.9821   16.1838 H   0  0  0  0  0
   17.2562  -13.4162   17.9047 H   0  0  0  0  0
   18.5929  -11.2431   18.8481 H   0  0  0  0  0
   18.8976  -13.9785   19.0411 H   0  0  0  0  0
   17.4965  -10.6645   21.0599 H   0  0  0  0  0
   19.0904  -15.5106   20.9326 H   0  0  0  0  0
   17.7809  -15.2332   22.0222 H   0  0  0  0  0
   18.2014  -14.0999   24.2291 H   0  0  0  0  0
   19.7713  -13.6815   26.0945 H   0  0  0  0  0
   23.0459  -14.6343   23.4781 H   0  0  0  0  0
   21.4527  -15.0218   21.6126 H   0  0  0  0  0
   20.9889  -13.5205   20.1640 H   0  0  0  0  0
   20.1025  -10.6624   20.3863 H   0  0  0  0  0
   20.4324  -11.8058   21.7110 H   0  0  0  0  0
   21.7548  -11.2747   20.6431 H   0  0  0  0  0
   20.7571  -13.3167   17.7401 H   0  0  0  0  0
   20.2430  -11.6208   17.9155 H   0  0  0  0  0
   21.9024  -12.0978   18.3514 H   0  0  0  0  0
  1  2  1  0  0  0
  2  3  1  0  0  0
  2  4  1  0  0  0
  4  5  4  0  0  0
  4  9  4  0  0  0
  5  6  4  0  0  0
  6  7  4  0  0  0
  7  8  4  0  0  0
  7 10  1  0  0  0
  8  9  4  0  0  0
 10 11  1  0  0  0
 10 21  1  0  0  0
 11 12  1  0  0  0
 11 15  1  0  0  0
 12 13  1  0  0  0
 13 14  1  0  0  0
 14 15  1  0  0  0
 15 16  1  0  0  0
 16 17  1  0  0  0
 16 21  1  0  0  0
 17 18  1  0  0  0
 17 29  1  0  0  0
 18 19  1  0  0  0
 18 22  1  0  0  0
 19 20  2  0  0  0
 19 21  1  0  0  0
 22 23  1  0  0  0
 23 24  4  0  0  0
 23 28  4  0  0  0
 24 25  4  0  0  0
 25 26  4  0  0  0
 26 27  4  0  0  0
 26 32  1  0  0  0
 27 28  4  0  0  0
 29 30  1  0  0  0
 29 31  1  0  0  0
  1 33  1  0  0  0
  1 34  1  0  0  0
  3 35  1  0  0  0
  3 36  1  0  0  0
  5 37  1  0  0  0
  6 38  1  0  0  0
  8 39  1  0  0  0
  9 40  1  0  0  0
 10 41  1  0  0  0
 12 42  1  0  0  0
 12 43  1  0  0  0
 13 44  1  0  0  0
 13 45  1  0  0  0
 14 46  1  0  0  0
 14 47  1  0  0  0
 15 48  1  0  0  0
 16 49  1  0  0  0
 17 50  1  0  0  0
 21 51  1  0  0  0
 22 52  1  0  0  0
 22 53  1  0  0  0
 24 54  1  0  0  0
 25 55  1  0  0  0
 27 56  1  0  0  0
 28 57  1  0  0  0
 29 58  1  0  0  0
 30 59  1  0  0  0
 30 60  1  0  0  0
 30 61  1  0  0  0
 31 62  1  0  0  0
 31 63  1  0  0  0
 31 64  1  0  0  0
M  END
$$$$
