### 
### Created by X-TOOL on Sun Jun  3 11:59:12 2007
### 

@<TRIPOS>MOLECULE
2cf8_ligand
   64    68     1     0     0
SMALL
GAST_HUCK


@<TRIPOS>ATOM
      1 N1         11.2130   -9.7810   24.4970 N.pl3     1 SUB1       -0.273
      2 C3         11.4690  -10.9100   23.8580 C.cat     1 SUB1        0.232
      3 N2         10.6980  -11.9810   24.1280 N.pl3     1 SUB1       -0.273
      4 C4         12.5830  -11.0070   22.8770 C.ar      1 SUB1        0.019
      5 C9         13.4160   -9.9420   22.5970 C.ar      1 SUB1       -0.063
      6 C8         14.4290  -10.0250   21.6580 C.ar      1 SUB1       -0.059
      7 C7         14.6840  -11.2280   20.9870 C.ar      1 SUB1       -0.023
      8 C6         13.8310  -12.3010   21.2550 C.ar      1 SUB1       -0.059
      9 C5         12.8080  -12.2040   22.1780 C.ar      1 SUB1       -0.063
     10 C10        15.7930  -11.3010   19.9910 C.3       1 SUB1        0.064
     11 N11        15.6460  -12.3720   18.9700 N.3       1 SUB1       -0.283
     12 C12        14.6030  -12.0510   17.9510 C.3       1 SUB1        0.002
     13 C13        15.3280  -11.7040   16.6590 C.3       1 SUB1       -0.039
     14 C14        16.8160  -11.6110   16.9890 C.3       1 SUB1       -0.036
     15 C15        16.9400  -12.4380   18.2670 C.3       1 SUB1        0.020
     16 C16        17.9750  -12.0190   19.3000 C.3       1 SUB1        0.021
     17 C17        18.9400  -13.1390   19.7350 C.3       1 SUB1        0.056
     18 N19        18.5180  -13.4530   21.0880 N.am      1 SUB1       -0.258
     19 C20        17.3940  -12.6890   21.5140 C.2       1 SUB1        0.188
     20 O21        16.8000  -12.9240   22.5220 O.2       1 SUB1       -0.396
     21 C22        17.2010  -11.5700   20.5300 C.3       1 SUB1        0.080
     22 C23        18.7170  -14.8000   21.6700 C.3       1 SUB1        0.068
     23 C24        19.7090  -14.5870   22.8080 C.ar      1 SUB1       -0.021
     24 C32        19.2720  -14.2150   24.0600 C.ar      1 SUB1       -0.058
     25 C31        20.1440  -13.9810   25.1150 C.ar      1 SUB1       -0.054
     26 C30        21.5010  -14.1390   24.8870 C.ar      1 SUB1        0.033
     27 C26        21.9750  -14.5130   23.6410 C.ar      1 SUB1       -0.054
     28 C25        21.0810  -14.7340   22.5960 C.ar      1 SUB1       -0.058
     29 C18        20.4070  -12.6960   19.7520 C.3       1 SUB1       -0.023
     30 C41        20.6950  -11.5250   20.6910 C.3       1 SUB1       -0.060
     31 C42        20.8590  -12.4130   18.3410 C.3       1 SUB1       -0.060
     32 CL30       22.6480  -13.8830   26.2230 Cl        1 SUB1       -0.077
     33 H          11.7844   -8.9546   24.3212 H         1 SUB1        0.318
     34 H          10.4441   -9.7365   25.1657 H         1 SUB1        0.318
     35 H          10.8756  -12.8687   23.6582 H         1 SUB1        0.318
     36 H           9.9365  -11.9043   24.8023 H         1 SUB1        0.318
     37 H          13.2708   -9.0044   23.1336 H         1 SUB1        0.060
     38 H          15.0345   -9.1457   21.4383 H         1 SUB1        0.056
     39 H          13.9765  -13.2402   20.7214 H         1 SUB1        0.056
     40 H          12.1682  -13.0662   22.3659 H         1 SUB1        0.060
     41 H          15.7006  -10.2901   19.5939 H         1 SUB1        0.065
     42 H          13.9873  -11.2147   18.2822 H         1 SUB1        0.043
     43 H          13.9379  -12.9015   17.8014 H         1 SUB1        0.043
     44 H          14.9639  -10.7590   16.2558 H         1 SUB1        0.028
     45 H          15.1493  -12.4668   15.9011 H         1 SUB1        0.028
     46 H          17.1556  -10.5833   17.1176 H         1 SUB1        0.028
     47 H          17.4501  -11.9821   16.1838 H         1 SUB1        0.028
     48 H          17.2562  -13.4162   17.9047 H         1 SUB1        0.047
     49 H          18.5929  -11.2431   18.8481 H         1 SUB1        0.037
     50 H          18.8976  -13.9785   19.0411 H         1 SUB1        0.057
     51 H          17.4965  -10.6645   21.0599 H         1 SUB1        0.058
     52 H          19.0904  -15.5106   20.9326 H         1 SUB1        0.069
     53 H          17.7809  -15.2332   22.0222 H         1 SUB1        0.069
     54 H          18.2014  -14.0999   24.2291 H         1 SUB1        0.056
     55 H          19.7713  -13.6815   26.0945 H         1 SUB1        0.061
     56 H          23.0459  -14.6343   23.4781 H         1 SUB1        0.061
     57 H          21.4527  -15.0218   21.6126 H         1 SUB1        0.056
     58 H          20.9889  -13.5205   20.1640 H         1 SUB1        0.032
     59 H          20.1025  -10.6624   20.3863 H         1 SUB1        0.023
     60 H          20.4324  -11.8058   21.7110 H         1 SUB1        0.023
     61 H          21.7548  -11.2747   20.6431 H         1 SUB1        0.023
     62 H          20.7571  -13.3167   17.7401 H         1 SUB1        0.023
     63 H          20.2430  -11.6208   17.9155 H         1 SUB1        0.023
     64 H          21.9024  -12.0978   18.3514 H         1 SUB1        0.023
@<TRIPOS>BOND
     1    1    2 1  
     2    2    3 1  
     3    2    4 1  
     4    4    5 ar 
     5    4    9 ar 
     6    5    6 ar 
     7    6    7 ar 
     8    7    8 ar 
     9    7   10 1  
    10    8    9 ar 
    11   10   11 1  
    12   10   21 1  
    13   11   12 1  
    14   11   15 1  
    15   12   13 1  
    16   13   14 1  
    17   14   15 1  
    18   15   16 1  
    19   16   17 1  
    20   16   21 1  
    21   17   18 1  
    22   17   29 1  
    23   18   19 am 
    24   18   22 1  
    25   19   20 2  
    26   19   21 1  
    27   22   23 1  
    28   23   24 ar 
    29   23   28 ar 
    30   24   25 ar 
    31   25   26 ar 
    32   26   27 ar 
    33   26   32 1  
    34   27   28 ar 
    35   29   30 1  
    36   29   31 1  
    37    1   33 1  
    38    1   34 1  
    39    3   35 1  
    40    3   36 1  
    41    5   37 1  
    42    6   38 1  
    43    8   39 1  
    44    9   40 1  
    45   10   41 1  
    46   12   42 1  
    47   12   43 1  
    48   13   44 1  
    49   13   45 1  
    50   14   46 1  
    51   14   47 1  
    52   15   48 1  
    53   16   49 1  
    54   17   50 1  
    55   21   51 1  
    56   22   52 1  
    57   22   53 1  
    58   24   54 1  
    59   25   55 1  
    60   27   56 1  
    61   28   57 1  
    62   29   58 1  
    63   30   59 1  
    64   30   60 1  
    65   30   61 1  
    66   31   62 1  
    67   31   63 1  
    68   31   64 1  
@<TRIPOS>SUBSTRUCTURE
     1 SUB1        1 GROUP

