### 
### Created by X-TOOL on Sun Jun  3 12:43:08 2007
### 

@<TRIPOS>MOLECULE
2hdq_ligand
   11    11     1     0     0
SMALL
GAST_HUCK


@<TRIPOS>ATOM
      1 O8         30.8320   11.4570   22.1070 O.2       1 SUB1       -0.536
      2 C6         30.5120   10.2720   21.8270 C.2       1 SUB1        0.151
      3 O7         31.2790    9.3350   22.0920 O.2       1 SUB1       -0.536
      4 C4         29.1990    9.9330   21.1810 C.2       1 SUB1        0.185
      5 S5         28.1280   11.2510   20.8230 S.3       1 SUB1        0.121
      6 C3         28.6190    8.7280   20.7780 C.2       1 SUB1        0.063
      7 C2         27.3500    8.8930   20.2100 C.2       1 SUB1        0.054
      8 C1         26.9380   10.2120   20.1370 C.2       1 SUB1        0.117
      9 H          29.1044    7.7589   20.8938 H         1 SUB1        0.105
     10 H          26.7426    8.0593   19.8578 H         1 SUB1        0.100
     11 H          25.9941   10.5461   19.7063 H         1 SUB1        0.176
@<TRIPOS>BOND
     1    1    2 2  
     2    2    3 2  
     3    2    4 1  
     4    4    5 1  
     5    4    6 2  
     6    5    8 1  
     7    6    7 1  
     8    7    8 2  
     9    6    9 1  
    10    7   10 1  
    11    8   11 1  
@<TRIPOS>SUBSTRUCTURE
     1 SUB1        1 GROUP

