2hdq_ligand
  -I-interpret- 

 11 11  0  0  0  0  0  0  0  0999 V2000
   30.8320   11.4570   22.1070 O   0  5  0  0  0
   30.5120   10.2720   21.8270 C   0  0  0  0  0
   31.2790    9.3350   22.0920 O   0  0  0  0  0
   29.1990    9.9330   21.1810 C   0  0  0  0  0
   28.1280   11.2510   20.8230 S   0  0  0  0  0
   28.6190    8.7280   20.7780 C   0  0  0  0  0
   27.3500    8.8930   20.2100 C   0  0  0  0  0
   26.9380   10.2120   20.1370 C   0  0  0  0  0
   29.1044    7.7589   20.8938 H   0  0  0  0  0
   26.7426    8.0593   19.8578 H   0  0  0  0  0
   25.9941   10.5461   19.7063 H   0  0  0  0  0
  1  2  1  0  0  0
  2  3  2  0  0  0
  2  4  1  0  0  0
  4  5  1  0  0  0
  4  6  2  0  0  0
  5  8  1  0  0  0
  6  7  1  0  0  0
  7  8  2  0  0  0
  6  9  1  0  0  0
  7 10  1  0  0  0
  8 11  1  0  0  0
M  END
$$$$
