1ent_ligand
  -I-interpret- 

 96 97  0  0  0  0  0  0  0  0999 V2000
    1.9390   27.2090   19.7660 O   0  0  0  0  0
    2.7800   26.3810   19.3940 C   0  0  0  0  0
    2.5800   24.9860   19.5670 O   0  0  0  0  0
    1.4470   24.4840   20.2840 C   0  0  0  0  0
    1.3410   25.1590   21.6570 C   0  0  0  0  0
    1.6150   22.9680   20.4520 C   0  0  0  0  0
    0.1790   24.7600   19.4720 C   0  0  0  0  0
    3.9230   26.7030   18.8150 N   0  0  0  0  0
    4.2970   28.1010   18.5560 C   0  0  0  0  0
    3.4020   28.6710   17.4480 C   0  0  0  0  0
    2.9540   27.9280   16.5910 O   0  0  0  0  0
    5.7520   28.2010   18.1070 C   0  0  0  0  0
    6.7300   28.0020   19.2580 C   0  0  0  0  0
    6.7520   26.8100   19.9730 C   0  0  0  0  0
    7.6360   29.0090   19.5810 C   0  0  0  0  0
    7.6560   26.6430   21.0170 C   0  0  0  0  0
    8.5400   28.8390   20.6220 C   0  0  0  0  0
    8.5550   27.6410   21.3370 C   0  0  0  0  0
    3.1880   29.9620   17.5180 N   0  0  0  0  0
    2.3450   30.6710   16.5180 C   0  0  0  0  0
    3.0170   32.0150   16.2170 C   0  0  0  0  0
    2.5650   33.0570   16.6730 O   0  0  0  0  0
    0.9730   30.9290   17.1680 C   0  0  0  0  0
   -0.0270   31.3150   16.0920 C   0  0  0  0  0
   -1.4100   31.2680   16.2120 N   0  0  0  0  0
    0.2970   31.8100   14.8330 C   0  0  0  0  0
   -1.9510   31.7320   15.0200 C   0  0  0  0  0
   -0.8950   32.0800   14.1800 N   0  0  0  0  0
    4.0970   31.9570   15.4550 N   0  0  0  0  0
    4.8680   33.1420   15.0750 C   0  0  0  0  0
    6.3390   32.9510   15.4960 C   0  0  0  0  0
    6.4650   32.5330   16.9540 C   0  0  0  0  0
    7.9020   32.3100   17.3750 C   0  0  0  0  0
    5.8230   33.5630   17.9340 C   0  0  0  0  0
    4.8220   33.4490   13.2960 P   0  0  0  0  0
    5.1030   32.1610   12.5580 O   0  5  0  0  0
    5.8340   34.5250   13.0150 O   0  0  0  0  0
    3.2250   34.1140   12.7590 C   0  0  0  0  0
    3.1080   35.5420   13.2780 C   0  0  0  0  0
    2.6020   35.7700   14.3720 O   0  0  0  0  0
    3.5720   36.5380   12.5250 N   0  0  0  0  0
    3.4740   37.9230   13.0180 C   0  0  0  0  0
    3.5640   38.9440   11.9000 C   0  0  0  0  0
    3.5200   40.3680   12.4820 C   0  0  0  0  0
    2.4190   38.7520   10.9120 C   0  0  0  0  0
    4.5270   41.3030   11.8420 C   0  0  0  0  0
    4.5524   25.9743   18.5449 H   0  0  0  0  0
    4.1606   28.6866   19.4771 H   0  0  0  0  0
    5.9191   29.1964   17.6696 H   0  0  0  0  0
    5.9406   27.4297   17.3458 H   0  0  0  0  0
    6.0652   26.0113   19.7172 H   0  0  0  0  0
    7.6358   29.9336   19.0152 H   0  0  0  0  0
    7.6547   25.7198   21.5852 H   0  0  0  0  0
    9.2311   29.6340   20.8778 H   0  0  0  0  0
    9.2687   27.4945   22.1396 H   0  0  0  0  0
    3.6023   30.4844   18.2633 H   0  0  0  0  0
    2.2356   30.0755   15.5997 H   0  0  0  0  0
    1.0604   31.7465   17.8988 H   0  0  0  0  0
    0.6304   30.0165   17.6779 H   0  0  0  0  0
   -1.9386   30.9472   17.0358 H   0  0  0  0  0
    1.2999   31.9577   14.4350 H   0  0  0  0  0
   -3.0112   31.8100   14.7839 H   0  0  0  0  0
    0.4666   24.7625   22.1939 H   0  0  0  0  0
    1.2281   26.2451   21.5239 H   0  0  0  0  0
    2.2522   24.9535   22.2380 H   0  0  0  0  0
    0.7529   22.5623   21.0017 H   0  0  0  0  0
    2.5380   22.7613   21.0135 H   0  0  0  0  0
    1.6744   22.4936   19.4613 H   0  0  0  0  0
   -0.6962   24.3767   20.0172 H   0  0  0  0  0
    0.2519   24.2577   18.4961 H   0  0  0  0  0
    0.0700   25.8439   19.3193 H   0  0  0  0  0
    4.4003   31.0635   15.1237 H   0  0  0  0  0
    4.4491   34.0153   15.5965 H   0  0  0  0  0
    6.8760   33.9000   15.3510 H   0  0  0  0  0
    6.7914   32.1732   14.8632 H   0  0  0  0  0
    5.9275   31.5796   17.0644 H   0  0  0  0  0
    7.9319   32.0111   18.4332 H   0  0  0  0  0
    8.4721   33.2411   17.2408 H   0  0  0  0  0
    8.3461   31.5157   16.7570 H   0  0  0  0  0
    4.7763   33.7401   17.6458 H   0  0  0  0  0
    6.3811   34.5098   17.8882 H   0  0  0  0  0
    5.8588   33.1654   18.9590 H   0  0  0  0  0
    2.4090   33.5005   13.1685 H   0  0  0  0  0
    3.1703   34.1110   11.6604 H   0  0  0  0  0
    3.9830   36.3475   11.6335 H   0  0  0  0  0
    4.2945   38.1039   13.7280 H   0  0  0  0  0
    2.5097   38.0471   13.5325 H   0  0  0  0  0
    4.5176   38.8054   11.3694 H   0  0  0  0  0
    3.7301   40.3122   13.5603 H   0  0  0  0  0
    2.5118   40.7792   12.3256 H   0  0  0  0  0
    2.4569   37.7326   10.5004 H   0  0  0  0  0
    2.5142   39.4814   10.0941 H   0  0  0  0  0
    1.4597   38.9034   11.4285 H   0  0  0  0  0
    4.4447   42.2997   12.3002 H   0  0  0  0  0
    4.3244   41.3775   10.7634 H   0  0  0  0  0
    5.5426   40.9105   11.9981 H   0  0  0  0  0
  2  1  2  0  0  0
  2  3  1  0  0  0
  3  4  1  0  0  0
  4  7  1  0  0  0
  4  6  1  0  0  0
  4  5  1  0  0  0
 10  9  1  0  0  0
  9 12  1  0  0  0
  9  8  1  0  0  0
 12 13  1  0  0  0
 13 15  4  0  0  0
 13 14  4  0  0  0
 14 16  4  0  0  0
 16 18  4  0  0  0
 17 18  4  0  0  0
 15 17  4  0  0  0
 10 11  2  0  0  0
 21 20  1  0  0  0
 20 23  1  0  0  0
 20 19  1  0  0  0
 23 24  1  0  0  0
 24 26  2  0  0  0
 24 25  1  0  0  0
 25 27  1  0  0  0
 27 28  2  0  0  0
 26 28  1  0  0  0
 21 22  2  0  0  0
 30 29  1  0  0  0
 35 30  1  0  0  0
 30 31  1  0  0  0
 31 32  1  0  0  0
 32 34  1  0  0  0
 32 33  1  0  0  0
 38 35  1  0  0  0
 35 37  2  0  0  0
 35 36  1  0  0  0
 39 38  1  0  0  0
 39 40  2  0  0  0
 41 42  1  0  0  0
 42 43  1  0  0  0
 43 45  1  0  0  0
 43 44  1  0  0  0
 44 46  1  0  0  0
 19 10  1  0  0  0
  8  2  1  0  0  0
 29 21  1  0  0  0
 39 41  1  0  0  0
  8 47  1  0  0  0
  9 48  1  0  0  0
 12 49  1  0  0  0
 12 50  1  0  0  0
 14 51  1  0  0  0
 15 52  1  0  0  0
 16 53  1  0  0  0
 17 54  1  0  0  0
 18 55  1  0  0  0
 19 56  1  0  0  0
 20 57  1  0  0  0
 23 58  1  0  0  0
 23 59  1  0  0  0
 25 60  1  0  0  0
 26 61  1  0  0  0
 27 62  1  0  0  0
  5 63  1  0  0  0
  5 64  1  0  0  0
  5 65  1  0  0  0
  6 66  1  0  0  0
  6 67  1  0  0  0
  6 68  1  0  0  0
  7 69  1  0  0  0
  7 70  1  0  0  0
  7 71  1  0  0  0
 29 72  1  0  0  0
 30 73  1  0  0  0
 31 74  1  0  0  0
 31 75  1  0  0  0
 32 76  1  0  0  0
 33 77  1  0  0  0
 33 78  1  0  0  0
 33 79  1  0  0  0
 34 80  1  0  0  0
 34 81  1  0  0  0
 34 82  1  0  0  0
 38 83  1  0  0  0
 38 84  1  0  0  0
 41 85  1  0  0  0
 42 86  1  0  0  0
 42 87  1  0  0  0
 43 88  1  0  0  0
 44 89  1  0  0  0
 44 90  1  0  0  0
 45 91  1  0  0  0
 45 92  1  0  0  0
 45 93  1  0  0  0
 46 94  1  0  0  0
 46 95  1  0  0  0
 46 96  1  0  0  0
M  END
$$$$
