### 
### Created by X-TOOL on Mon Oct 24 22:55:48 2005
### 

@<TRIPOS>MOLECULE
1ent_ligand
   96    97     1     0     0
SMALL
GAST_HUCK


@<TRIPOS>ATOM
      1 OT1         1.9390   27.2090   19.7660 O.2       1 SUB1       -0.377
      2 CT1         2.7800   26.3810   19.3940 C.2       1 SUB1        0.322
      3 OT2         2.5800   24.9860   19.5670 O.3       1 SUB1       -0.258
      4 CT2         1.4470   24.4840   20.2840 C.3       1 SUB1        0.090
      5 CT3         1.3410   25.1590   21.6570 C.3       1 SUB1       -0.032
      6 CT4         1.6150   22.9680   20.4520 C.3       1 SUB1       -0.032
      7 CT5         0.1790   24.7600   19.4720 C.3       1 SUB1       -0.032
      8 N           3.9230   26.7030   18.8150 N.am      1 SUB1       -0.239
      9 CA          4.2970   28.1010   18.5560 C.3       1 SUB1        0.142
     10 C           3.4020   28.6710   17.4480 C.2       1 SUB1        0.206
     11 O           2.9540   27.9280   16.5910 O.2       1 SUB1       -0.394
     12 CB          5.7520   28.2010   18.1070 C.3       1 SUB1        0.021
     13 CG          6.7300   28.0020   19.2580 C.ar      1 SUB1       -0.039
     14 CD1         6.7520   26.8100   19.9730 C.ar      1 SUB1       -0.060
     15 CD2         7.6360   29.0090   19.5810 C.ar      1 SUB1       -0.060
     16 CE1         7.6560   26.6430   21.0170 C.ar      1 SUB1       -0.069
     17 CE2         8.5400   28.8390   20.6220 C.ar      1 SUB1       -0.069
     18 CZ          8.5550   27.6410   21.3370 C.ar      1 SUB1       -0.069
     19 N           3.1880   29.9620   17.5180 N.am      1 SUB1       -0.262
     20 CA          2.3450   30.6710   16.5180 C.3       1 SUB1        0.142
     21 C           3.0170   32.0150   16.2170 C.2       1 SUB1        0.204
     22 O           2.5650   33.0570   16.6730 O.2       1 SUB1       -0.394
     23 CB          0.9730   30.9290   17.1680 C.3       1 SUB1        0.043
     24 CG         -0.0270   31.3150   16.0920 C.2       1 SUB1        0.056
     25 ND1        -1.4100   31.2680   16.2120 N.pl3     1 SUB1       -0.262
     26 CD2         0.2970   31.8100   14.8330 C.2       1 SUB1       -0.028
     27 CE1        -1.9510   31.7320   15.0200 C.2       1 SUB1        0.087
     28 NE2        -0.8950   32.0800   14.1800 N.2       1 SUB1       -0.344
     29 N           4.0970   31.9570   15.4550 N.am      1 SUB1       -0.276
     30 CA          4.8680   33.1420   15.0750 C.3       1 SUB1        0.080
     31 CB          6.3390   32.9510   15.4960 C.3       1 SUB1       -0.022
     32 CG          6.4650   32.5330   16.9540 C.3       1 SUB1       -0.044
     33 CD1         7.9020   32.3100   17.3750 C.3       1 SUB1       -0.063
     34 CD2         5.8230   33.5630   17.9340 C.3       1 SUB1       -0.063
     35 P           4.8220   33.4490   13.2960 P.3       1 SUB1        0.043
     36 O1          5.1030   32.1610   12.5580 O.co2     1 SUB1       -0.551
     37 O2          5.8340   34.5250   13.0150 O.co2     1 SUB1       -0.551
     38 CM          3.2250   34.1140   12.7590 C.3       1 SUB1        0.075
     39 C           3.1080   35.5420   13.2780 C.2       1 SUB1        0.182
     40 O           2.6020   35.7700   14.3720 O.2       1 SUB1       -0.397
     41 N           3.5720   36.5380   12.5250 N.am      1 SUB1       -0.286
     42 CA          3.4740   37.9230   13.0180 C.3       1 SUB1        0.033
     43 CB          3.5640   38.9440   11.9000 C.3       1 SUB1       -0.024
     44 CG1         3.5200   40.3680   12.4820 C.3       1 SUB1       -0.052
     45 CG2         2.4190   38.7520   10.9120 C.3       1 SUB1       -0.061
     46 CD1         4.5270   41.3030   11.8420 C.3       1 SUB1       -0.065
     47 H81         4.5524   25.9743   18.5449 H         1 SUB1        0.190
     48 H91         4.1606   28.6866   19.4771 H         1 SUB1        0.082
     49 H121        5.9191   29.1964   17.6696 H         1 SUB1        0.047
     50 H122        5.9406   27.4297   17.3458 H         1 SUB1        0.047
     51 H141        6.0652   26.0113   19.7172 H         1 SUB1        0.056
     52 H151        7.6358   29.9336   19.0152 H         1 SUB1        0.056
     53 H161        7.6547   25.7198   21.5852 H         1 SUB1        0.060
     54 H171        9.2311   29.6340   20.8778 H         1 SUB1        0.060
     55 H181        9.2687   27.4945   22.1396 H         1 SUB1        0.056
     56 H191        3.6023   30.4844   18.2633 H         1 SUB1        0.189
     57 H201        2.2356   30.0755   15.5997 H         1 SUB1        0.082
     58 H231        1.0604   31.7465   17.8988 H         1 SUB1        0.049
     59 H232        0.6304   30.0165   17.6779 H         1 SUB1        0.049
     60 H251       -1.9386   30.9472   17.0358 H         1 SUB1        0.239
     61 H261        1.2999   31.9577   14.4350 H         1 SUB1        0.032
     62 H271       -3.0112   31.8100   14.7839 H         1 SUB1        0.115
     63 H51         0.4666   24.7625   22.1939 H         1 SUB1        0.026
     64 H52         1.2281   26.2451   21.5239 H         1 SUB1        0.026
     65 H53         2.2522   24.9535   22.2380 H         1 SUB1        0.026
     66 H61         0.7529   22.5623   21.0017 H         1 SUB1        0.026
     67 H62         2.5380   22.7613   21.0135 H         1 SUB1        0.026
     68 H63         1.6744   22.4936   19.4613 H         1 SUB1        0.026
     69 H71        -0.6962   24.3767   20.0172 H         1 SUB1        0.026
     70 H72         0.2519   24.2577   18.4961 H         1 SUB1        0.026
     71 H73         0.0700   25.8439   19.3193 H         1 SUB1        0.026
     72 H291        4.4003   31.0635   15.1237 H         1 SUB1        0.186
     73 H301        4.4491   34.0153   15.5965 H         1 SUB1        0.062
     74 H311        6.8760   33.9000   15.3510 H         1 SUB1        0.029
     75 H312        6.7914   32.1732   14.8632 H         1 SUB1        0.029
     76 H321        5.9275   31.5796   17.0644 H         1 SUB1        0.030
     77 H331        7.9319   32.0111   18.4332 H         1 SUB1        0.023
     78 H332        8.4721   33.2411   17.2408 H         1 SUB1        0.023
     79 H333        8.3461   31.5157   16.7570 H         1 SUB1        0.023
     80 H341        4.7763   33.7401   17.6458 H         1 SUB1        0.023
     81 H342        6.3811   34.5098   17.8882 H         1 SUB1        0.023
     82 H343        5.8588   33.1654   18.9590 H         1 SUB1        0.023
     83 H381        2.4090   33.5005   13.1685 H         1 SUB1        0.056
     84 H382        3.1703   34.1110   11.6604 H         1 SUB1        0.056
     85 H411        3.9830   36.3475   11.6335 H         1 SUB1        0.185
     86 H421        4.2945   38.1039   13.7280 H         1 SUB1        0.052
     87 H422        2.5097   38.0471   13.5325 H         1 SUB1        0.052
     88 H431        4.5176   38.8054   11.3694 H         1 SUB1        0.032
     89 H441        3.7301   40.3122   13.5603 H         1 SUB1        0.027
     90 H442        2.5118   40.7792   12.3256 H         1 SUB1        0.027
     91 H451        2.4569   37.7326   10.5004 H         1 SUB1        0.023
     92 H452        2.5142   39.4814   10.0941 H         1 SUB1        0.023
     93 H453        1.4597   38.9034   11.4285 H         1 SUB1        0.023
     94 H461        4.4447   42.2997   12.3002 H         1 SUB1        0.023
     95 H462        4.3244   41.3775   10.7634 H         1 SUB1        0.023
     96 H463        5.5426   40.9105   11.9981 H         1 SUB1        0.023
@<TRIPOS>BOND
     1    2    1 2  
     2    2    3 1  
     3    3    4 1  
     4    4    7 1  
     5    4    6 1  
     6    4    5 1  
     7   10    9 1  
     8    9   12 1  
     9    9    8 1  
    10   12   13 1  
    11   13   15 ar 
    12   13   14 ar 
    13   14   16 ar 
    14   16   18 ar 
    15   17   18 ar 
    16   15   17 ar 
    17   10   11 2  
    18   21   20 1  
    19   20   23 1  
    20   20   19 1  
    21   23   24 1  
    22   24   26 2  
    23   24   25 1  
    24   25   27 1  
    25   27   28 2  
    26   26   28 1  
    27   21   22 2  
    28   30   29 1  
    29   35   30 1  
    30   30   31 1  
    31   31   32 1  
    32   32   34 1  
    33   32   33 1  
    34   38   35 1  
    35   35   37 2  
    36   35   36 2  
    37   39   38 1  
    38   39   40 2  
    39   41   42 1  
    40   42   43 1  
    41   43   45 1  
    42   43   44 1  
    43   44   46 1  
    44   19   10 am 
    45    8    2 am 
    46   29   21 am 
    47   39   41 am 
    48    8   47 1  
    49    9   48 1  
    50   12   49 1  
    51   12   50 1  
    52   14   51 1  
    53   15   52 1  
    54   16   53 1  
    55   17   54 1  
    56   18   55 1  
    57   19   56 1  
    58   20   57 1  
    59   23   58 1  
    60   23   59 1  
    61   25   60 1  
    62   26   61 1  
    63   27   62 1  
    64    5   63 1  
    65    5   64 1  
    66    5   65 1  
    67    6   66 1  
    68    6   67 1  
    69    6   68 1  
    70    7   69 1  
    71    7   70 1  
    72    7   71 1  
    73   29   72 1  
    74   30   73 1  
    75   31   74 1  
    76   31   75 1  
    77   32   76 1  
    78   33   77 1  
    79   33   78 1  
    80   33   79 1  
    81   34   80 1  
    82   34   81 1  
    83   34   82 1  
    84   38   83 1  
    85   38   84 1  
    86   41   85 1  
    87   42   86 1  
    88   42   87 1  
    89   43   88 1  
    90   44   89 1  
    91   44   90 1  
    92   45   91 1  
    93   45   92 1  
    94   45   93 1  
    95   46   94 1  
    96   46   95 1  
    97   46   96 1  
@<TRIPOS>SUBSTRUCTURE
     1 SUB1        1 GROUP

