1b46_ligand
  -I-interpret- 

 61 61  0  0  0  0  0  0  0  0999 V2000
    6.7660   16.3870   15.1390 N   0  3  0  0  0
    6.3140   17.7280   14.6600 C   0  0  0  0  0
    5.0830   18.1570   15.4200 C   0  0  0  0  0
    4.1450   17.3810   15.6580 O   0  0  0  0  0
    6.0390   17.6230   13.1280 C   0  0  0  0  0
    5.0770   16.5230   12.6910 C   0  0  0  0  0
    4.9850   16.4040   11.1500 C   0  0  0  0  0
    6.2050   15.7360   10.5340 C   0  0  0  0  0
    6.3720   14.3080   10.9700 N   0  3  0  0  0
    4.9700   19.4160   15.8200 N   0  0  0  0  0
    3.7360   19.9220   16.4280 C   0  0  0  0  0
    2.5470   19.8630   15.4810 C   0  0  0  0  0
    2.6260   20.1430   14.2660 O   0  0  0  0  0
    4.0770   21.3960   16.7230 C   0  0  0  0  0
    5.5800   21.3400   16.8930 C   0  0  0  0  0
    6.0190   20.4540   15.7250 C   0  0  0  0  0
    1.3760   19.5380   16.0320 N   0  0  0  0  0
    0.1360   19.4660   15.3030 C   0  0  0  0  0
   -0.9460   20.2840   16.0330 C   0  0  0  0  0
   -1.9040   20.6800   15.3660 O   0  0  0  0  0
   -0.4030   18.0340   15.1640 C   0  0  0  0  0
   -1.4620   18.0400   14.0310 C   0  0  0  0  0
   -2.1740   16.6980   14.0750 C   0  0  0  0  0
   -3.4740   16.7950   13.2670 C   0  0  0  0  0
   -3.0760   16.7440   11.8380 N   0  3  0  0  0
   -0.7610   20.6360   17.2110 O   0  5  0  0  0
    6.1851   16.0916   15.9080 H   0  0  0  0  0
    7.1106   18.4666   14.8329 H   0  0  0  0  0
    7.0014   17.4464   12.6254 H   0  0  0  0  0
    5.6226   18.5851   12.7949 H   0  0  0  0  0
    4.0767   16.7486   13.0891 H   0  0  0  0  0
    5.4266   15.5636   13.1001 H   0  0  0  0  0
    4.8859   17.4138   10.7253 H   0  0  0  0  0
    4.0943   15.8105   10.8963 H   0  0  0  0  0
    7.1014   16.3005   10.8302 H   0  0  0  0  0
    6.1025   15.7590    9.4390 H   0  0  0  0  0
    6.4853   14.2734   11.9710 H   0  0  0  0  0
    7.1867   13.9142   10.5259 H   0  0  0  0  0
    5.5562   13.7783   10.7056 H   0  0  0  0  0
    3.5003   19.3700   17.3498 H   0  0  0  0  0
    3.5831   21.7449   17.6419 H   0  0  0  0  0
    3.7931   22.0482   15.8839 H   0  0  0  0  0
    6.0250   22.3432   16.8187 H   0  0  0  0  0
    5.8533   20.8882   17.8580 H   0  0  0  0  0
    5.9846   20.9894   14.7647 H   0  0  0  0  0
    7.0261   20.0387   15.8773 H   0  0  0  0  0
    1.3583   19.3319   17.0104 H   0  0  0  0  0
    0.2999   19.8841   14.2988 H   0  0  0  0  0
   -0.8664   17.7142   16.1089 H   0  0  0  0  0
    0.4173   17.3476   14.9072 H   0  0  0  0  0
   -0.9704   18.1741   13.0562 H   0  0  0  0  0
   -2.1830   18.8548   14.1932 H   0  0  0  0  0
   -2.4069   16.4382   15.1182 H   0  0  0  0  0
   -1.5264   15.9226   13.6399 H   0  0  0  0  0
   -3.9897   17.7416   13.4859 H   0  0  0  0  0
   -4.1375   15.9516   13.5087 H   0  0  0  0  0
   -2.4698   17.5220   11.6301 H   0  0  0  0  0
   -3.8988   16.7949   11.2580 H   0  0  0  0  0
   -2.5891   15.8805   11.6554 H   0  0  0  0  0
    7.7246   16.4451   15.4451 H   0  0  0  0  0
    6.6932   15.7195   14.3872 H   0  0  0  0  0
  2  1  1  0  0  0
  2  5  1  0  0  0
  3  2  1  0  0  0
  3  4  2  0  0  0
  5  6  1  0  0  0
  6  7  1  0  0  0
  7  8  1  0  0  0
  8  9  1  0  0  0
 12 11  1  0  0  0
 11 14  1  0  0  0
 11 10  1  0  0  0
 10 16  1  0  0  0
 16 15  1  0  0  0
 14 15  1  0  0  0
 12 13  2  0  0  0
 10  3  1  0  0  0
 17 18  1  0  0  0
 18 21  1  0  0  0
 18 19  1  0  0  0
 19 20  2  0  0  0
 19 26  1  0  0  0
 21 22  1  0  0  0
 22 23  1  0  0  0
 23 24  1  0  0  0
 24 25  1  0  0  0
 12 17  1  0  0  0
  1 27  1  0  0  0
  2 28  1  0  0  0
  5 29  1  0  0  0
  5 30  1  0  0  0
  6 31  1  0  0  0
  6 32  1  0  0  0
  7 33  1  0  0  0
  7 34  1  0  0  0
  8 35  1  0  0  0
  8 36  1  0  0  0
  9 37  1  0  0  0
  9 38  1  0  0  0
  9 39  1  0  0  0
 11 40  1  0  0  0
 14 41  1  0  0  0
 14 42  1  0  0  0
 15 43  1  0  0  0
 15 44  1  0  0  0
 16 45  1  0  0  0
 16 46  1  0  0  0
 17 47  1  0  0  0
 18 48  1  0  0  0
 21 49  1  0  0  0
 21 50  1  0  0  0
 22 51  1  0  0  0
 22 52  1  0  0  0
 23 53  1  0  0  0
 23 54  1  0  0  0
 24 55  1  0  0  0
 24 56  1  0  0  0
 25 57  1  0  0  0
 25 58  1  0  0  0
 25 59  1  0  0  0
  1 60  1  0  0  0
  1 61  1  0  0  0
M  END
$$$$
