### 
### Created by X-TOOL on Mon Oct 24 22:40:59 2005
### 

@<TRIPOS>MOLECULE
1b46_ligand
   61    61     1     0     0
SMALL
GAST_HUCK


@<TRIPOS>ATOM
      1 N           6.7660   16.3870   15.1390 N.4       1 SUB1        0.238
      2 CA          6.3140   17.7280   14.6600 C.3       1 SUB1        0.065
      3 C           5.0830   18.1570   15.4200 C.2       1 SUB1        0.229
      4 O           4.1450   17.3810   15.6580 O.2       1 SUB1       -0.391
      5 CB          6.0390   17.6230   13.1280 C.3       1 SUB1        0.008
      6 CG          5.0770   16.5230   12.6910 C.3       1 SUB1       -0.041
      7 CD          4.9850   16.4040   11.1500 C.3       1 SUB1       -0.012
      8 CE          6.2050   15.7360   10.5340 C.3       1 SUB1       -0.035
      9 NZ          6.3720   14.3080   10.9700 N.4       1 SUB1        0.219
     10 N           4.9700   19.4160   15.8200 N.am      1 SUB1       -0.247
     11 CA          3.7360   19.9220   16.4280 C.3       1 SUB1        0.134
     12 C           2.5470   19.8630   15.4810 C.2       1 SUB1        0.205
     13 O           2.6260   20.1430   14.2660 O.2       1 SUB1       -0.394
     14 CB          4.0770   21.3960   16.7230 C.3       1 SUB1       -0.010
     15 CG          5.5800   21.3400   16.8930 C.3       1 SUB1       -0.028
     16 CD          6.0190   20.4540   15.7250 C.3       1 SUB1        0.037
     17 N           1.3760   19.5380   16.0320 N.am      1 SUB1       -0.268
     18 CA          0.1360   19.4660   15.3030 C.3       1 SUB1        0.081
     19 C          -0.9460   20.2840   16.0330 C.2       1 SUB1        0.053
     20 O          -1.9040   20.6800   15.3660 O.co2     1 SUB1       -0.564
     21 CB         -0.4030   18.0340   15.1640 C.3       1 SUB1       -0.018
     22 CG         -1.4620   18.0400   14.0310 C.3       1 SUB1       -0.043
     23 CD         -2.1740   16.6980   14.0750 C.3       1 SUB1       -0.012
     24 CE         -3.4740   16.7950   13.2670 C.3       1 SUB1       -0.035
     25 NZ         -3.0760   16.7440   11.8380 N.4       1 SUB1        0.219
     26 OXT        -0.7610   20.6360   17.2110 O.co2     1 SUB1       -0.564
     27 H11         6.1851   16.0916   15.9080 H         1 SUB1        0.201
     28 H21         7.1106   18.4666   14.8329 H         1 SUB1        0.110
     29 H51         7.0014   17.4464   12.6254 H         1 SUB1        0.035
     30 H52         5.6226   18.5851   12.7949 H         1 SUB1        0.035
     31 H61         4.0767   16.7486   13.0891 H         1 SUB1        0.027
     32 H62         5.4266   15.5636   13.1001 H         1 SUB1        0.027
     33 H71         4.8859   17.4138   10.7253 H         1 SUB1        0.032
     34 H72         4.0943   15.8105   10.8963 H         1 SUB1        0.032
     35 H81         7.1014   16.3005   10.8302 H         1 SUB1        0.081
     36 H82         6.1025   15.7590    9.4390 H         1 SUB1        0.081
     37 H91         6.4853   14.2734   11.9710 H         1 SUB1        0.199
     38 H92         7.1867   13.9142   10.5259 H         1 SUB1        0.199
     39 H93         5.5562   13.7783   10.7056 H         1 SUB1        0.199
     40 H111        3.5003   19.3700   17.3498 H         1 SUB1        0.080
     41 H141        3.5831   21.7449   17.6419 H         1 SUB1        0.031
     42 H142        3.7931   22.0482   15.8839 H         1 SUB1        0.031
     43 H151        6.0250   22.3432   16.8187 H         1 SUB1        0.029
     44 H152        5.8533   20.8882   17.8580 H         1 SUB1        0.029
     45 H161        5.9846   20.9894   14.7647 H         1 SUB1        0.052
     46 H162        7.0261   20.0387   15.8773 H         1 SUB1        0.052
     47 H171        1.3583   19.3319   17.0104 H         1 SUB1        0.190
     48 H181        0.2999   19.8841   14.2988 H         1 SUB1        0.078
     49 H211       -0.8664   17.7142   16.1089 H         1 SUB1        0.032
     50 H212        0.4173   17.3476   14.9072 H         1 SUB1        0.032
     51 H221       -0.9704   18.1741   13.0562 H         1 SUB1        0.027
     52 H222       -2.1830   18.8548   14.1932 H         1 SUB1        0.027
     53 H231       -2.4069   16.4382   15.1182 H         1 SUB1        0.032
     54 H232       -1.5264   15.9226   13.6399 H         1 SUB1        0.032
     55 H241       -3.9897   17.7416   13.4859 H         1 SUB1        0.081
     56 H242       -4.1375   15.9516   13.5087 H         1 SUB1        0.081
     57 H251       -2.4698   17.5220   11.6301 H         1 SUB1        0.199
     58 H252       -3.8988   16.7949   11.2580 H         1 SUB1        0.199
     59 H253       -2.5891   15.8805   11.6554 H         1 SUB1        0.199
     60 H12         7.7246   16.4451   15.4451 H         1 SUB1        0.201
     61 H13         6.6932   15.7195   14.3872 H         1 SUB1        0.201
@<TRIPOS>BOND
     1    2    1 1  
     2    2    5 1  
     3    3    2 1  
     4    3    4 2  
     5    5    6 1  
     6    6    7 1  
     7    7    8 1  
     8    8    9 1  
     9   12   11 1  
    10   11   14 1  
    11   11   10 1  
    12   10   16 1  
    13   16   15 1  
    14   14   15 1  
    15   12   13 2  
    16   10    3 am 
    17   17   18 1  
    18   18   21 1  
    19   18   19 1  
    20   19   20 2  
    21   19   26 2  
    22   21   22 1  
    23   22   23 1  
    24   23   24 1  
    25   24   25 1  
    26   12   17 am 
    27    1   27 1  
    28    2   28 1  
    29    5   29 1  
    30    5   30 1  
    31    6   31 1  
    32    6   32 1  
    33    7   33 1  
    34    7   34 1  
    35    8   35 1  
    36    8   36 1  
    37    9   37 1  
    38    9   38 1  
    39    9   39 1  
    40   11   40 1  
    41   14   41 1  
    42   14   42 1  
    43   15   43 1  
    44   15   44 1  
    45   16   45 1  
    46   16   46 1  
    47   17   47 1  
    48   18   48 1  
    49   21   49 1  
    50   21   50 1  
    51   22   51 1  
    52   22   52 1  
    53   23   53 1  
    54   23   54 1  
    55   24   55 1  
    56   24   56 1  
    57   25   57 1  
    58   25   58 1  
    59   25   59 1  
    60    1   60 1  
    61    1   61 1  
@<TRIPOS>SUBSTRUCTURE
     1 SUB1        1 GROUP

