1fwu_ligand
  -I-interpret- 

 74 76  0  0  0  0  0  0  0  0999 V2000
    0.0740    6.0250   10.0480 C   0  0  0  0  0
   -0.0700    7.5190    9.8370 C   0  0  0  0  0
    0.7640    8.2970   10.8820 C   0  0  0  0  0
    0.2420    7.9120   12.2990 C   0  0  0  0  0
    0.4020    6.3540   12.4730 C   0  0  0  0  0
   -0.1070    5.8080   13.8320 C   0  0  0  0  0
   -0.7060    5.2910    9.0700 O   0  0  0  0  0
    0.3700    7.8340    8.5160 O   0  0  0  0  0
    0.6210    9.7100   10.6740 O   0  0  0  0  0
   -1.1390    8.2480   12.4380 O   0  0  0  0  0
   -0.3500    5.6240   11.4090 O   0  0  0  0  0
   -0.0460    4.3840   13.8350 O   0  0  0  0  0
    1.8070   10.6300   10.9440 S   0  0  0  0  0
    2.9600   10.2560   10.0910 O   0  5  0  0  0
    1.4220   12.0140   10.6430 O   0  0  0  0  0
    2.1870   10.5720   12.3450 O   0  0  0  0  0
   -1.3110    1.4150    7.4750 C   0  0  0  0  0
   -1.8380    1.8570    8.8690 C   0  0  0  0  0
   -1.8480    3.4050    8.9600 C   0  0  0  0  0
   -0.3550    3.8850    8.7740 C   0  0  0  0  0
    0.1320    3.4030    7.3480 C   0  0  0  0  0
    1.5780    3.7970    7.0740 C   0  0  0  0  0
   -3.1530    0.2000    8.3020 C   0  0  0  0  0
   -3.9690    0.2460    7.0460 C   0  0  0  0  0
   -3.1860    1.3250    9.0670 N   0  0  0  0  0
   -1.2810    0.0650    7.3590 O   0  0  0  0  0
    0.0510    1.9570    7.2490 O   0  0  0  0  0
    2.0250    3.3630    5.7800 O   0  0  0  0  0
   -2.4950   -0.8420    8.5840 O   0  0  0  0  0
   -3.9390    3.7160   10.2190 C   0  0  0  0  0
   -4.5110    3.4570   11.6430 C   0  0  0  0  0
   -3.9210    4.4810   12.6440 C   0  0  0  0  0
   -4.2970    5.9140   12.1830 C   0  0  0  0  0
   -3.7250    6.1820   10.8070 C   0  0  0  0  0
   -4.0380    7.5390   10.2300 C   0  0  0  0  0
   -2.5320    3.4010   10.2320 O   0  0  0  0  0
   -4.2270    2.0940   11.9950 O   0  0  0  0  0
   -4.4700    4.2280   13.9340 O   0  0  0  0  0
   -5.7450    6.0430   12.1570 O   0  0  0  0  0
   -4.1780    5.1260    9.8270 O   0  0  0  0  0
    1.1344    5.7614    9.9215 H   0  0  0  0  0
   -1.1279    7.8005    9.9446 H   0  0  0  0  0
    1.8248    8.0212   10.7896 H   0  0  0  0  0
    0.8283    8.4399   13.0655 H   0  0  0  0  0
    1.4726    6.1177   12.3837 H   0  0  0  0  0
   -1.1475    6.1290   13.9876 H   0  0  0  0  0
    0.5234    6.2019   14.6428 H   0  0  0  0  0
   -0.1629    7.3640    7.8854 H   0  0  0  0  0
   -1.6453    7.7779   11.7860 H   0  0  0  0  0
   -0.5910    4.0433   13.1355 H   0  0  0  0  0
   -1.9858    1.8176    6.7052 H   0  0  0  0  0
   -1.1750    1.4569    9.6503 H   0  0  0  0  0
   -2.4628    3.8994    8.1934 H   0  0  0  0  0
    0.3444    3.4899    9.5254 H   0  0  0  0  0
   -0.5160    3.8591    6.5851 H   0  0  0  0  0
    2.2205    3.3409    7.8415 H   0  0  0  0  0
    1.6627    4.8924    7.1285 H   0  0  0  0  0
   -3.8698   -0.7090    6.5091 H   0  0  0  0  0
   -3.6107    1.0655    6.4057 H   0  0  0  0  0
   -5.0255    0.4151    7.3011 H   0  0  0  0  0
   -3.9348    1.6915    9.6192 H   0  0  0  0  0
   -2.1528   -0.2836    7.5035 H   0  0  0  0  0
    1.9618    2.4167    5.7253 H   0  0  0  0  0
   -4.4466    3.0588    9.4976 H   0  0  0  0  0
   -5.6026    3.5907   11.6220 H   0  0  0  0  0
   -2.8263    4.3798   12.6806 H   0  0  0  0  0
   -3.8812    6.6440   12.8930 H   0  0  0  0  0
   -2.6311    6.1143   10.9002 H   0  0  0  0  0
   -3.5782    7.6292    9.2348 H   0  0  0  0  0
   -3.6361    8.3204   10.8917 H   0  0  0  0  0
   -5.1281    7.6577   10.1424 H   0  0  0  0  0
   -3.2871    1.9557   11.9885 H   0  0  0  0  0
   -5.4150    4.3189   13.8982 H   0  0  0  0  0
   -6.0915    5.8863   13.0276 H   0  0  0  0  0
  1 11  1  0  0  0
  7  1  1  0  0  0
  1  2  1  0  0  0
  2  8  1  0  0  0
  2  3  1  0  0  0
  3  9  1  0  0  0
  3  4  1  0  0  0
  4 10  1  0  0  0
  5  4  1  0  0  0
 11  5  1  0  0  0
  5  6  1  0  0  0
  6 12  1  0  0  0
  9 13  1  0  0  0
 13 16  2  0  0  0
 13 15  2  0  0  0
 13 14  1  0  0  0
 17 27  1  0  0  0
 17 26  1  0  0  0
 18 17  1  0  0  0
 18 25  1  0  0  0
 19 18  1  0  0  0
 19 20  1  0  0  0
 20 21  1  0  0  0
 21 27  1  0  0  0
 21 22  1  0  0  0
 22 28  1  0  0  0
 25 23  1  0  0  0
 23 29  2  0  0  0
 23 24  1  0  0  0
 30 40  1  0  0  0
 36 30  1  0  0  0
 30 31  1  0  0  0
 31 37  1  0  0  0
 31 32  1  0  0  0
 32 38  1  0  0  0
 32 33  1  0  0  0
 33 39  1  0  0  0
 34 33  1  0  0  0
 40 34  1  0  0  0
 34 35  1  0  0  0
 20  7  1  0  0  0
 36 19  1  0  0  0
  1 41  1  0  0  0
  2 42  1  0  0  0
  3 43  1  0  0  0
  4 44  1  0  0  0
  5 45  1  0  0  0
  6 46  1  0  0  0
  6 47  1  0  0  0
  8 48  1  0  0  0
 10 49  1  0  0  0
 12 50  1  0  0  0
 17 51  1  0  0  0
 18 52  1  0  0  0
 19 53  1  0  0  0
 20 54  1  0  0  0
 21 55  1  0  0  0
 22 56  1  0  0  0
 22 57  1  0  0  0
 24 58  1  0  0  0
 24 59  1  0  0  0
 24 60  1  0  0  0
 25 61  1  0  0  0
 26 62  1  0  0  0
 28 63  1  0  0  0
 30 64  1  0  0  0
 31 65  1  0  0  0
 32 66  1  0  0  0
 33 67  1  0  0  0
 34 68  1  0  0  0
 35 69  1  0  0  0
 35 70  1  0  0  0
 35 71  1  0  0  0
 37 72  1  0  0  0
 38 73  1  0  0  0
 39 74  1  0  0  0
M  END
$$$$
