### 
### Created by X-TOOL on Mon Oct 24 21:55:22 2005
### 

@<TRIPOS>MOLECULE
1ghz_ligand
   31    33     1     0     0
SMALL
GAST_HUCK


@<TRIPOS>ATOM
      1 H141       44.7573   17.8967   51.5226 H         1 SUB1        0.057
      2 H151       44.2354   19.5809   49.7586 H         1 SUB1        0.055
      3 H181       46.2076   21.0534   54.1386 H         1 SUB1        0.059
      4 H201       46.7327   17.9377   55.6664 H         1 SUB1        0.192
      5 H202       46.8610   19.6160   55.0753 H         1 SUB1        0.192
      6 H211       44.8097   16.8774   52.9282 H         1 SUB1        0.192
      7 H212       45.5956   16.3970   54.4560 H         1 SUB1        0.192
      8 H231       46.0175   23.5200   52.9601 H         1 SUB1        0.230
      9 H261       46.4469   25.3028   52.0071 H         1 SUB1        0.075
     10 H271       46.5120   27.5612   51.0721 H         1 SUB1        0.063
     11 H281       45.3296   28.0987   48.9532 H         1 SUB1        0.082
     12 H311       43.9218   23.1854   49.0324 H         1 SUB1        0.257
     13 C1         45.5210   19.3220   52.9710 C.ar      1 SUB1        0.174
     14 C2         44.9600   18.9450   51.7100 C.ar      1 SUB1       -0.022
     15 C3         44.6630   19.8760   50.7100 C.ar      1 SUB1       -0.057
     16 C4         44.9430   21.1740   51.0030 C.ar      1 SUB1        0.032
     17 C5         45.4780   21.5930   52.1780 C.ar      1 SUB1        0.086
     18 C6         45.7850   20.7080   53.2020 C.ar      1 SUB1        0.015
     19 C7         45.8050   18.3410   53.9180 C.cat     1 SUB1        0.311
     20 N1         46.5150   18.6530   54.9580 N.pl3     1 SUB1       -0.201
     21 N2         45.3730   17.1190   53.7560 N.pl3     1 SUB1       -0.201
     22 N3         44.7760   22.2190   50.2680 N.2       1 SUB1       -0.307
     23 N4         45.6450   22.9130   52.2160 N.pl3     1 SUB1       -0.250
     24 C8         45.1820   23.2150   50.9930 C.2       1 SUB1        0.144
     25 C1'        45.2120   24.5160   50.4390 C.ar      1 SUB1        0.093
     26 C2'        45.9180   25.5190   51.0800 C.ar      1 SUB1       -0.033
     27 C3'        45.9540   26.7840   50.5520 C.ar      1 SUB1       -0.041
     28 C4'        45.3000   27.0960   49.3770 C.ar      1 SUB1        0.003
     29 N5'        44.6330   26.1090   48.7910 N.ar      1 SUB1       -0.267
     30 C6'        44.5300   24.8470   49.2100 C.ar      1 SUB1        0.183
     31 O6'        43.8810   24.0230   48.5860 O.3       1 SUB1       -0.308
@<TRIPOS>BOND
     1   14    1 1  
     2   15    2 1  
     3   18    3 1  
     4   20    4 1  
     5   20    5 1  
     6   21    6 1  
     7   21    7 1  
     8   23    8 1  
     9   26    9 1  
    10   27   10 1  
    11   28   11 1  
    12   31   12 1  
    13   19   13 1  
    14   13   18 ar 
    15   13   14 ar 
    16   14   15 ar 
    17   15   16 ar 
    18   16   22 1  
    19   17   16 ar 
    20   17   23 1  
    21   18   17 ar 
    22   23   24 1  
    23   24   25 1  
    24   22   24 2  
    25   25   30 ar 
    26   25   26 ar 
    27   26   27 ar 
    28   27   28 ar 
    29   29   28 ar 
    30   30   29 ar 
    31   30   31 1  
    32   19   21 1  
    33   19   20 1  
@<TRIPOS>SUBSTRUCTURE
     1 SUB1        1 GROUP

