1ghz_ligand
  -I-interpret- 

 31 33  0  0  0  0  0  0  0  0999 V2000
   44.7573   17.8967   51.5226 H   0  0  0  0  0
   44.2354   19.5809   49.7586 H   0  0  0  0  0
   46.2076   21.0534   54.1386 H   0  0  0  0  0
   46.7327   17.9377   55.6664 H   0  0  0  0  0
   46.8610   19.6160   55.0753 H   0  0  0  0  0
   44.8097   16.8774   52.9282 H   0  0  0  0  0
   45.5956   16.3970   54.4560 H   0  0  0  0  0
   46.0175   23.5200   52.9601 H   0  0  0  0  0
   46.4469   25.3028   52.0071 H   0  0  0  0  0
   46.5120   27.5612   51.0721 H   0  0  0  0  0
   45.3296   28.0987   48.9532 H   0  0  0  0  0
   43.9218   23.1854   49.0324 H   0  0  0  0  0
   45.5210   19.3220   52.9710 C   0  0  0  0  0
   44.9600   18.9450   51.7100 C   0  0  0  0  0
   44.6630   19.8760   50.7100 C   0  0  0  0  0
   44.9430   21.1740   51.0030 C   0  0  0  0  0
   45.4780   21.5930   52.1780 C   0  0  0  0  0
   45.7850   20.7080   53.2020 C   0  0  0  0  0
   45.8050   18.3410   53.9180 C   0  3  0  0  0
   46.5150   18.6530   54.9580 N   0  0  0  0  0
   45.3730   17.1190   53.7560 N   0  0  0  0  0
   44.7760   22.2190   50.2680 N   0  0  0  0  0
   45.6450   22.9130   52.2160 N   0  0  0  0  0
   45.1820   23.2150   50.9930 C   0  0  0  0  0
   45.2120   24.5160   50.4390 C   0  0  0  0  0
   45.9180   25.5190   51.0800 C   0  0  0  0  0
   45.9540   26.7840   50.5520 C   0  0  0  0  0
   45.3000   27.0960   49.3770 C   0  0  0  0  0
   44.6330   26.1090   48.7910 N   0  0  0  0  0
   44.5300   24.8470   49.2100 C   0  0  0  0  0
   43.8810   24.0230   48.5860 O   0  0  0  0  0
 14  1  1  0  0  0
 15  2  1  0  0  0
 18  3  1  0  0  0
 20  4  1  0  0  0
 20  5  1  0  0  0
 21  6  1  0  0  0
 21  7  1  0  0  0
 23  8  1  0  0  0
 26  9  1  0  0  0
 27 10  1  0  0  0
 28 11  1  0  0  0
 31 12  1  0  0  0
 19 13  1  0  0  0
 13 18  4  0  0  0
 13 14  4  0  0  0
 14 15  4  0  0  0
 15 16  4  0  0  0
 16 22  1  0  0  0
 17 16  4  0  0  0
 17 23  1  0  0  0
 18 17  4  0  0  0
 23 24  1  0  0  0
 24 25  1  0  0  0
 22 24  2  0  0  0
 25 30  4  0  0  0
 25 26  4  0  0  0
 26 27  4  0  0  0
 27 28  4  0  0  0
 29 28  4  0  0  0
 30 29  4  0  0  0
 30 31  1  0  0  0
 19 21  1  0  0  0
 19 20  1  0  0  0
M  END
$$$$
