1gi4_ligand
  -I-interpret- 

 32 34  0  0  0  0  0  0  0  0999 V2000
   44.9473   -0.8607   25.7114 H   0  0  0  0  0
   44.6770    0.4162   27.8416 H   0  0  0  0  0
   42.6958   -4.1720   27.3121 H   0  0  0  0  0
   43.9743   -5.1506   24.2079 H   0  0  0  0  0
   43.5587   -5.1306   25.9427 H   0  0  0  0  0
   44.5315   -1.6648   24.0610 H   0  0  0  0  0
   43.8450   -2.6200   26.3150 C   0  0  0  0  0
   44.3910   -1.3120   26.5250 C   0  0  0  0  0
   44.2550   -0.5740   27.7130 C   0  0  0  0  0
   43.5460   -1.2100   28.6920 C   0  0  0  0  0
   43.0360   -2.4460   28.5270 C   0  0  0  0  0
   43.1400   -3.1860   27.3870 C   0  0  0  0  0
   44.0280   -3.3280   25.1170 C   0  3  0  0  0
   43.8400   -4.6310   25.0870 N   0  0  0  0  0
   44.3860   -2.6840   24.0310 N   0  0  0  0  0
   43.3130   -0.7180   29.8950 N   0  0  0  0  0
   42.4440   -2.7370   29.6330 N   0  0  0  0  0
   42.6130   -1.7180   30.4190 C   0  0  0  0  0
   42.0620   -1.7300   31.7660 C   0  0  0  0  0
   41.1150   -2.7470   32.1220 C   0  0  0  0  0
   40.5390   -2.8090   33.3720 C   0  0  0  0  0
   40.8740   -1.8690   34.3340 C   0  0  0  0  0
   41.7850   -0.8480   34.0790 C   0  0  0  0  0
   42.3750   -0.7780   32.8230 C   0  0  0  0  0
   43.2710    0.2670   32.7590 O   0  0  0  0  0
   44.5215   -3.1978   23.1486 H   0  0  0  0  0
   41.9367   -3.6065   29.8508 H   0  0  0  0  0
   40.8435   -3.4918   31.3826 H   0  0  0  0  0
   39.8251   -3.5915   33.6027 H   0  0  0  0  0
   40.4132   -1.9308   35.3132 H   0  0  0  0  0
   42.0295   -0.1215   34.8455 H   0  0  0  0  0
   43.6613    0.2955   31.8933 H   0  0  0  0  0
  8  1  1  0  0  0
  9  2  1  0  0  0
 12  3  1  0  0  0
 14  4  1  0  0  0
 13  7  1  0  0  0
  7 12  4  0  0  0
  7  8  4  0  0  0
  8  9  4  0  0  0
  9 10  4  0  0  0
 10 16  1  0  0  0
 11 10  4  0  0  0
 11 17  1  0  0  0
 12 11  4  0  0  0
 17 18  1  0  0  0
 18 19  1  0  0  0
 16 18  2  0  0  0
 19 24  4  0  0  0
 19 20  4  0  0  0
 14  5  1  0  0  0
 20 21  4  0  0  0
 15  6  1  0  0  0
 21 22  4  0  0  0
 15 26  1  0  0  0
 23 22  4  0  0  0
 17 27  1  0  0  0
 24 23  4  0  0  0
 24 25  1  0  0  0
 13 15  1  0  0  0
 13 14  1  0  0  0
 20 28  1  0  0  0
 21 29  1  0  0  0
 22 30  1  0  0  0
 23 31  1  0  0  0
 25 32  1  0  0  0
M  END
$$$$
