### 
### Created by X-TOOL on Mon Oct 24 21:55:16 2005
### 

@<TRIPOS>MOLECULE
1gi4_ligand
   32    34     1     0     0
SMALL
GAST_HUCK


@<TRIPOS>ATOM
      1 H81        44.9473   -0.8607   25.7114 H         1 SUB1        0.057
      2 H91        44.6770    0.4162   27.8416 H         1 SUB1        0.055
      3 H121       42.6958   -4.1720   27.3121 H         1 SUB1        0.059
      4 H141       43.9743   -5.1506   24.2079 H         1 SUB1        0.192
      5 H142       43.5587   -5.1306   25.9427 H         1 SUB1        0.192
      6 H151       44.5315   -1.6648   24.0610 H         1 SUB1        0.192
      7 C1         43.8450   -2.6200   26.3150 C.ar      1 SUB1        0.173
      8 C2         44.3910   -1.3120   26.5250 C.ar      1 SUB1       -0.022
      9 C3         44.2550   -0.5740   27.7130 C.ar      1 SUB1       -0.058
     10 C4         43.5460   -1.2100   28.6920 C.ar      1 SUB1        0.030
     11 C5         43.0360   -2.4460   28.5270 C.ar      1 SUB1        0.085
     12 C6         43.1400   -3.1860   27.3870 C.ar      1 SUB1        0.014
     13 C7         44.0280   -3.3280   25.1170 C.cat     1 SUB1        0.311
     14 N1         43.8400   -4.6310   25.0870 N.pl3     1 SUB1       -0.201
     15 N2         44.3860   -2.6840   24.0310 N.pl3     1 SUB1       -0.201
     16 N3         43.3130   -0.7180   29.8950 N.2       1 SUB1       -0.310
     17 N4         42.4440   -2.7370   29.6330 N.pl3     1 SUB1       -0.251
     18 C8         42.6130   -1.7180   30.4190 C.2       1 SUB1        0.136
     19 C1'        42.0620   -1.7300   31.7660 C.ar      1 SUB1        0.065
     20 C2'        41.1150   -2.7470   32.1220 C.ar      1 SUB1       -0.052
     21 C3'        40.5390   -2.8090   33.3720 C.ar      1 SUB1       -0.067
     22 C4'        40.8740   -1.8690   34.3340 C.ar      1 SUB1       -0.066
     23 C5'        41.7850   -0.8480   34.0790 C.ar      1 SUB1       -0.026
     24 C6'        42.3750   -0.7780   32.8230 C.ar      1 SUB1        0.109
     25 O6'        43.2710    0.2670   32.7590 O.3       1 SUB1       -0.326
     26 H152       44.5215   -3.1978   23.1486 H         1 SUB1        0.192
     27 H171       41.9367   -3.6065   29.8508 H         1 SUB1        0.230
     28 H201       40.8435   -3.4918   31.3826 H         1 SUB1        0.064
     29 H211       39.8251   -3.5915   33.6027 H         1 SUB1        0.054
     30 H221       40.4132   -1.9308   35.3132 H         1 SUB1        0.062
     31 H231       42.0295   -0.1215   34.8455 H         1 SUB1        0.055
     32 H251       43.6613    0.2955   31.8933 H         1 SUB1        0.252
@<TRIPOS>BOND
     1    8    1 1  
     2    9    2 1  
     3   12    3 1  
     4   14    4 1  
     5   13    7 1  
     6    7   12 ar 
     7    7    8 ar 
     8    8    9 ar 
     9    9   10 ar 
    10   10   16 1  
    11   11   10 ar 
    12   11   17 1  
    13   12   11 ar 
    14   17   18 1  
    15   18   19 1  
    16   16   18 2  
    17   19   24 ar 
    18   19   20 ar 
    19   14    5 1  
    20   20   21 ar 
    21   15    6 1  
    22   21   22 ar 
    23   15   26 1  
    24   23   22 ar 
    25   17   27 1  
    26   24   23 ar 
    27   24   25 1  
    28   13   15 1  
    29   13   14 1  
    30   20   28 1  
    31   21   29 1  
    32   22   30 1  
    33   23   31 1  
    34   25   32 1  
@<TRIPOS>SUBSTRUCTURE
     1 SUB1        1 GROUP

