### 
### Created by X-TOOL on Mon Oct 24 22:51:40 2005
### 

@<TRIPOS>MOLECULE
1b6j_ligand
  102   104     1     0     0
SMALL
GAST_HUCK


@<TRIPOS>ATOM
      1 H401        5.8946    5.6737    9.1773 H         1 SUB1        0.032
      2 H402        6.2102    4.7645   10.6940 H         1 SUB1        0.032
      3 H431        5.2486    2.8546    8.8365 H         1 SUB1        0.050
      4 H432        4.2105    4.3065    8.6338 H         1 SUB1        0.050
      5 H441        4.2307    1.4680   10.1381 H         1 SUB1        0.188
      6 H451        3.2979    2.4638   12.8037 H         1 SUB1        0.083
      7 H481        1.3293    1.0115   12.7124 H         1 SUB1        0.055
      8 H482        1.7622    0.4986   11.0462 H         1 SUB1        0.055
      9 H511        0.4007    3.2987    9.4657 H         1 SUB1        0.181
     10 H512        1.2734    1.8090    9.3272 H         1 SUB1        0.181
     11 H521        4.8889    1.6144   13.9737 H         1 SUB1        0.186
     12 H531        5.6790   -1.2646   13.5707 H         1 SUB1        0.060
     13 H541        7.8123   -0.6370   14.5095 H         1 SUB1        0.043
     14 H542        7.1572    0.9016   15.1654 H         1 SUB1        0.043
     15 H561        7.4180    2.8703   13.8976 H         1 SUB1        0.053
     16 H571        7.6120    4.0385   11.7217 H         1 SUB1        0.052
     17 H581        7.6550   -0.9043   11.8947 H         1 SUB1        0.053
     18 H591        7.8359    0.2523    9.7271 H         1 SUB1        0.052
     19 H621        8.2674    4.7571    9.4376 H         1 SUB1        0.061
     20 H622        7.4244    4.2947    7.9203 H         1 SUB1        0.061
     21 H631        5.7389   -1.5105   16.0308 H         1 SUB1        0.063
     22 H641        6.1579    0.7314   16.5211 H         1 SUB1        0.210
     23 H651        3.2828   -0.6583   14.5648 H         1 SUB1        0.045
     24 H652        3.1563   -0.6904   16.3564 H         1 SUB1        0.045
     25 H671        4.4411   -2.8141   17.3139 H         1 SUB1        0.071
     26 H701        2.4213   -4.0936   17.4450 H         1 SUB1        0.031
     27 H702        3.6216   -5.3827   17.0926 H         1 SUB1        0.031
     28 H711        1.5721   -5.1777   15.4580 H         1 SUB1        0.028
     29 H712        3.2070   -5.2481   14.7171 H         1 SUB1        0.028
     30 H721        2.4109   -3.2188   13.7522 H         1 SUB1        0.043
     31 H722        1.4151   -2.8133   15.1912 H         1 SUB1        0.043
     32 H731        5.9848   -4.3584   17.8601 H         1 SUB1        0.188
     33 H741        7.5600   -5.6228   15.6390 H         1 SUB1        0.080
     34 H771        8.6938   -4.0645   18.0401 H         1 SUB1        0.034
     35 H781        9.8284   -2.6944   16.3693 H         1 SUB1        0.027
     36 H782        8.0526   -2.6550   16.1011 H         1 SUB1        0.027
     37 H791        9.8855   -6.2085   17.6281 H         1 SUB1        0.023
     38 H792       10.9072   -4.7923   17.2072 H         1 SUB1        0.023
     39 H793       10.1137   -5.7454   15.9077 H         1 SUB1        0.023
     40 C1          6.0980    4.6800    9.6030 C.3       1 SUB1       -0.008
     41 C2          4.1570    3.4300   10.5900 C.2       1 SUB1        0.178
     42 O3          3.7960    4.3130   11.3740 O.2       1 SUB1       -0.397
     43 C4          4.8970    3.7810    9.3140 C.3       1 SUB1        0.040
     44 N5          3.9350    2.1390   10.8180 N.am      1 SUB1       -0.264
     45 C6          3.2650    1.6680   12.0450 C.3       1 SUB1        0.147
     46 C7          4.0410    0.4620   12.5560 C.2       1 SUB1        0.205
     47 O8          3.9570   -0.6280   11.9920 O.2       1 SUB1       -0.394
     48 C9          1.8040    1.3250   11.7710 C.3       1 SUB1        0.077
     49 C10         1.0450    2.5070   11.2100 C.2       1 SUB1        0.178
     50 O11         0.6600    3.4160   11.9450 O.2       1 SUB1       -0.397
     51 N12         0.8940    2.5410    9.8930 N.am      1 SUB1       -0.301
     52 N13         4.8490    0.6910   13.5920 N.am      1 SUB1       -0.278
     53 C14         5.6860   -0.3610   14.1980 C.3       1 SUB1        0.077
     54 C15         7.1130    0.1920   14.3260 C.3       1 SUB1        0.001
     55 C16         7.4940    0.8960   13.0550 C.ar      1 SUB1       -0.052
     56 C17         7.4990    2.2910   12.9850 C.ar      1 SUB1       -0.069
     57 C18         7.6070    2.9550   11.7550 C.ar      1 SUB1       -0.040
     58 C19         7.6300    0.1790   11.8640 C.ar      1 SUB1       -0.069
     59 C20         7.7340    0.8310   10.6380 C.ar      1 SUB1       -0.040
     60 C21         7.7080    2.2200   10.5750 C.ar      1 SUB1        0.084
     61 O22         7.6860    2.7860    9.2980 O.3       1 SUB1       -0.322
     62 C23         7.4460    4.1620    9.0120 C.3       1 SUB1        0.071
     63 C24         5.1540   -0.6860   15.5970 C.3       1 SUB1        0.093
     64 O25         5.2480    0.4690   16.4450 O.3       1 SUB1       -0.388
     65 C26         3.6990   -1.0900   15.4870 C.3       1 SUB1        0.030
     66 N27         3.5160   -2.5440   15.4480 N.3       1 SUB1       -0.280
     67 C28         4.2080   -3.3990   16.4120 C.3       1 SUB1        0.101
     68 C29         5.5010   -4.0600   15.9380 C.2       1 SUB1        0.196
     69 O30         5.8130   -4.1120   14.7460 O.2       1 SUB1       -0.395
     70 C31         3.1600   -4.4580   16.7160 C.3       1 SUB1       -0.019
     71 C32         2.5420   -4.6660   15.3720 C.3       1 SUB1       -0.036
     72 C33         2.3670   -3.2470   14.8510 C.3       1 SUB1        0.002
     73 N34         6.2670   -4.5230   16.9150 N.am      1 SUB1       -0.264
     74 C35         7.5050   -5.2630   16.6770 C.3       1 SUB1        0.133
     75 C36         7.3570   -6.4010   17.6690 C.2       1 SUB1        0.204
     76 O37         7.3650   -6.1760   18.8800 O.2       1 SUB1       -0.394
     77 C38         8.7830   -4.4560   17.0160 C.3       1 SUB1       -0.004
     78 C39         8.9550   -3.2820   16.0500 C.3       1 SUB1       -0.049
     79 C40        10.0080   -5.3640   16.9340 C.3       1 SUB1       -0.058
     80 C41         9.1600   -3.6980   14.6320 C.3       1 SUB1       -0.065
     81 N42         7.0850   -7.5930   17.1520 N.am      1 SUB1       -0.264
     82 C43         6.9200   -8.7790   18.0020 C.3       1 SUB1        0.133
     83 C44         8.0430   -9.7860   17.7430 C.2       1 SUB1        0.199
     84 O45         8.3940  -10.0630   16.5900 O.2       1 SUB1       -0.395
     85 C46         5.5280   -9.4500   17.7970 C.3       1 SUB1       -0.006
     86 C47         4.4170   -8.4300   18.0070 C.3       1 SUB1       -0.058
     87 C48         5.4180  -10.0870   16.4130 C.3       1 SUB1       -0.058
     88 N49         8.6300  -10.3170   18.8160 N.am      1 SUB1       -0.299
     89 H801        9.2752   -2.8045   14.0008 H         1 SUB1        0.023
     90 H802        8.2901   -4.2783   14.2907 H         1 SUB1        0.023
     91 H803       10.0658   -4.3178   14.5590 H         1 SUB1        0.023
     92 H811        6.9903   -7.6854   16.1608 H         1 SUB1        0.188
     93 H821        6.9869   -8.4542   19.0508 H         1 SUB1        0.080
     94 H851        5.4152  -10.2445   18.5494 H         1 SUB1        0.034
     95 H861        3.4410   -8.9154   17.8597 H         1 SUB1        0.023
     96 H862        4.5312   -7.6093   17.2836 H         1 SUB1        0.023
     97 H863        4.4762   -8.0286   19.0294 H         1 SUB1        0.023
     98 H871        6.2280  -10.8195   16.2811 H         1 SUB1        0.023
     99 H872        5.5006   -9.3064   15.6424 H         1 SUB1        0.023
    100 H873        4.4463  -10.5939   16.3188 H         1 SUB1        0.023
    101 H881        9.3697  -10.9806   18.7043 H         1 SUB1        0.182
    102 H882        8.3305  -10.0517   19.7325 H         1 SUB1        0.182
@<TRIPOS>BOND
     1   40    1 1  
     2   40    2 1  
     3   43    3 1  
     4   43    4 1  
     5   44    5 1  
     6   45    6 1  
     7   48    7 1  
     8   48    8 1  
     9   51    9 1  
    10   51   10 1  
    11   52   11 1  
    12   53   12 1  
    13   54   13 1  
    14   54   14 1  
    15   56   15 1  
    16   57   16 1  
    17   58   17 1  
    18   59   18 1  
    19   62   19 1  
    20   62   20 1  
    21   63   21 1  
    22   64   22 1  
    23   65   23 1  
    24   65   24 1  
    25   67   25 1  
    26   70   26 1  
    27   70   27 1  
    28   71   28 1  
    29   71   29 1  
    30   72   30 1  
    31   72   31 1  
    32   73   32 1  
    33   40   62 1  
    34   43   40 1  
    35   41   43 1  
    36   44   41 am 
    37   41   42 2  
    38   45   44 1  
    39   48   45 1  
    40   45   46 1  
    41   46   52 am 
    42   46   47 2  
    43   52   53 1  
    44   53   63 1  
    45   53   54 1  
    46   54   55 1  
    47   55   58 ar 
    48   55   56 ar 
    49   56   57 ar 
    50   57   60 ar 
    51   61   60 1  
    52   59   60 ar 
    53   58   59 ar 
    54   62   61 1  
    55   63   65 1  
    56   63   64 1  
    57   65   66 1  
    58   66   72 1  
    59   66   67 1  
    60   67   70 1  
    61   67   68 1  
    62   68   73 am 
    63   68   69 2  
    64   73   74 1  
    65   74   77 1  
    66   74   75 1  
    67   75   81 am 
    68   75   76 2  
    69   81   82 1  
    70   82   85 1  
    71   82   83 1  
    72   83   88 am 
    73   83   84 2  
    74   85   87 1  
    75   85   86 1  
    76   77   79 1  
    77   77   78 1  
    78   78   80 1  
    79   70   71 1  
    80   72   71 1  
    81   49   48 1  
    82   49   51 am 
    83   49   50 2  
    84   74   33 1  
    85   77   34 1  
    86   78   35 1  
    87   78   36 1  
    88   79   37 1  
    89   79   38 1  
    90   79   39 1  
    91   80   89 1  
    92   80   90 1  
    93   80   91 1  
    94   81   92 1  
    95   82   93 1  
    96   85   94 1  
    97   86   95 1  
    98   86   96 1  
    99   86   97 1  
   100   87   98 1  
   101   87   99 1  
   102   87  100 1  
   103   88  101 1  
   104   88  102 1  
@<TRIPOS>SUBSTRUCTURE
     1 SUB1        1 GROUP

