1h0a_ligand
  -I-interpret- 

 33 33  0  0  0  0  0  0  0  0999 V2000
   23.8435   34.6345    2.1348 H   0  0  0  0  0
   25.9818   34.9130    3.1045 H   0  0  0  0  0
   24.1495   36.0522    4.1930 H   0  0  0  0  0
   23.9271   33.6263    5.9815 H   0  0  0  0  0
   21.9123   34.6221    3.9819 H   0  0  0  0  0
   23.5459   32.0819    3.6874 H   0  0  0  0  0
   26.6568   33.6947    4.9515 H   0  0  0  0  0
   25.2462   36.2159    6.2303 H   0  0  0  0  0
   21.5379   31.8800    2.7257 H   0  0  0  0  0
   24.2490   33.7590    2.6630 C   0  0  0  0  0
   25.2730   34.2920    3.6720 C   0  0  0  0  0
   24.5950   35.1830    4.6990 C   0  0  0  0  0
   23.4780   34.4220    5.3690 C   0  0  0  0  0
   22.5040   33.8070    4.4240 C   0  0  0  0  0
   23.1010   32.9800    3.2340 C   0  0  0  0  0
   24.8500   32.8300    1.6700 O   0  0  0  0  0
   26.0520   33.2780    4.3490 O   0  0  0  0  0
   25.6250   35.6510    5.5670 O   0  0  0  0  0
   22.7360   35.2870    6.1890 O   0  0  0  0  0
   21.6280   32.9670    5.2160 O   0  0  0  0  0
   22.1450   32.4590    2.2800 O   0  0  0  0  0
   25.3570   33.6030    0.2980 P   0  0  0  0  0
   24.1360   33.9980   -0.3600 O   0  5  0  0  0
   26.0320   32.4330   -0.3300 O   0  5  0  0  0
   26.2130   34.6960    0.5730 O   0  0  0  0  0
   23.0350   35.7650    7.6950 P   0  0  0  0  0
   23.4940   34.4880    8.5010 O   0  5  0  0  0
   24.1780   36.7050    7.6620 O   0  5  0  0  0
   21.7350   36.2440    8.0820 O   0  0  0  0  0
   20.0800   32.8440    5.0820 P   0  0  0  0  0
   19.5310   31.6730    5.8560 O   0  0  0  0  0
   19.7600   32.3010    3.6930 O   0  5  0  0  0
   19.3980   34.1230    5.4990 O   0  5  0  0  0
 10  1  1  0  0  0
 11  2  1  0  0  0
 12  3  1  0  0  0
 13  4  1  0  0  0
 14  5  1  0  0  0
 15  6  1  0  0  0
 17  7  1  0  0  0
 18  8  1  0  0  0
 21  9  1  0  0  0
 10 16  1  0  0  0
 15 10  1  0  0  0
 10 11  1  0  0  0
 11 17  1  0  0  0
 11 12  1  0  0  0
 12 18  1  0  0  0
 13 12  1  0  0  0
 13 19  1  0  0  0
 14 13  1  0  0  0
 14 20  1  0  0  0
 15 14  1  0  0  0
 15 21  1  0  0  0
 20 30  1  0  0  0
 30 33  1  0  0  0
 30 32  1  0  0  0
 30 31  2  0  0  0
 19 26  1  0  0  0
 26 29  2  0  0  0
 26 28  1  0  0  0
 26 27  1  0  0  0
 16 22  1  0  0  0
 22 25  2  0  0  0
 22 24  1  0  0  0
 22 23  1  0  0  0
M  END
$$$$
