### 
### Created by X-TOOL on Mon Oct 24 22:33:50 2005
### 

@<TRIPOS>MOLECULE
1h0a_ligand
   33    33     1     0     0
SMALL
GAST_HUCK


@<TRIPOS>ATOM
      1 H101       23.8435   34.6345    2.1348 H         1 SUB1        0.070
      2 H111       25.9818   34.9130    3.1045 H         1 SUB1        0.065
      3 H121       24.1495   36.0522    4.1930 H         1 SUB1        0.065
      4 H131       23.9271   33.6263    5.9815 H         1 SUB1        0.071
      5 H141       21.9123   34.6221    3.9819 H         1 SUB1        0.071
      6 H151       23.5459   32.0819    3.6874 H         1 SUB1        0.065
      7 H171       26.6568   33.6947    4.9515 H         1 SUB1        0.210
      8 H181       25.2462   36.2159    6.2303 H         1 SUB1        0.210
      9 H211       21.5379   31.8800    2.7257 H         1 SUB1        0.210
     10 C1         24.2490   33.7590    2.6630 C.3       1 SUB1        0.133
     11 C2         25.2730   34.2920    3.6720 C.3       1 SUB1        0.117
     12 C3         24.5950   35.1830    4.6990 C.3       1 SUB1        0.117
     13 C4         23.4780   34.4220    5.3690 C.3       1 SUB1        0.137
     14 C5         22.5040   33.8070    4.4240 C.3       1 SUB1        0.138
     15 C6         23.1010   32.9800    3.2340 C.3       1 SUB1        0.121
     16 O1         24.8500   32.8300    1.6700 O.3       1 SUB1       -0.314
     17 O2         26.0520   33.2780    4.3490 O.3       1 SUB1       -0.386
     18 O3         25.6250   35.6510    5.5670 O.3       1 SUB1       -0.386
     19 O4         22.7360   35.2870    6.1890 O.3       1 SUB1       -0.313
     20 O5         21.6280   32.9670    5.2160 O.3       1 SUB1       -0.313
     21 O6         22.1450   32.4590    2.2800 O.3       1 SUB1       -0.386
     22 P1         25.3570   33.6030    0.2980 P.3       1 SUB1        0.206
     23 O11        24.1360   33.9980   -0.3600 O.co2     1 SUB1       -0.535
     24 O12        26.0320   32.4330   -0.3300 O.co2     1 SUB1       -0.535
     25 O13        26.2130   34.6960    0.5730 O.co2     1 SUB1       -0.535
     26 P4         23.0350   35.7650    7.6950 P.3       1 SUB1        0.206
     27 O41        23.4940   34.4880    8.5010 O.co2     1 SUB1       -0.535
     28 O42        24.1780   36.7050    7.6620 O.co2     1 SUB1       -0.535
     29 O43        21.7350   36.2440    8.0820 O.co2     1 SUB1       -0.535
     30 P5         20.0800   32.8440    5.0820 P.3       1 SUB1        0.206
     31 O51        19.5310   31.6730    5.8560 O.co2     1 SUB1       -0.535
     32 O52        19.7600   32.3010    3.6930 O.co2     1 SUB1       -0.535
     33 O53        19.3980   34.1230    5.4990 O.co2     1 SUB1       -0.535
@<TRIPOS>BOND
     1   10    1 1  
     2   11    2 1  
     3   12    3 1  
     4   13    4 1  
     5   14    5 1  
     6   15    6 1  
     7   17    7 1  
     8   18    8 1  
     9   21    9 1  
    10   10   16 1  
    11   15   10 1  
    12   10   11 1  
    13   11   17 1  
    14   11   12 1  
    15   12   18 1  
    16   13   12 1  
    17   13   19 1  
    18   14   13 1  
    19   14   20 1  
    20   15   14 1  
    21   15   21 1  
    22   20   30 1  
    23   30   33 2  
    24   30   32 2  
    25   30   31 2  
    26   19   26 1  
    27   26   29 2  
    28   26   28 2  
    29   26   27 2  
    30   16   22 1  
    31   22   25 2  
    32   22   24 2  
    33   22   23 2  
@<TRIPOS>SUBSTRUCTURE
     1 SUB1        1 GROUP

