5yas_ligand
  -I-interpret- 

 13 12  0  0  0  0  0  0  0  0999 V2000
   13.4120   52.1240   16.4910 C   0  0  0  0  0
   13.4770   52.5560   15.1330 O   0  0  0  0  0
   13.7090   50.7370   16.5120 O   0  0  0  0  0
   14.4100   52.9090   17.3190 C   0  0  0  0  0
   11.9910   52.2480   16.9630 C   0  0  0  0  0
   14.2210   52.6940   18.6690 F   0  0  0  0  0
   14.2660   54.2390   17.0130 F   0  0  0  0  0
   15.6550   52.4860   16.9860 F   0  0  0  0  0
   11.7910   51.6630   18.2030 F   0  0  0  0  0
   11.3150   51.5850   16.0350 F   0  0  0  0  0
   11.5650   53.5450   16.9630 F   0  0  0  0  0
   14.3499   52.3977   14.7929 H   0  0  0  0  0
   13.0724   50.2699   15.9837 H   0  0  0  0  0
  1  2  1  0  0  0
  1  3  1  0  0  0
  1  4  1  0  0  0
  1  5  1  0  0  0
  4  6  1  0  0  0
  4  7  1  0  0  0
  4  8  1  0  0  0
  5  9  1  0  0  0
  5 10  1  0  0  0
  5 11  1  0  0  0
  2 12  1  0  0  0
  3 13  1  0  0  0
M  END
$$$$
