### 
### Created by X-TOOL on Mon Oct 24 22:39:39 2005
### 

@<TRIPOS>MOLECULE
1pot_ligand
   32    31     1     0     0
SMALL
GAST_HUCK


@<TRIPOS>ATOM
      1 N1         66.7990   40.4000    4.7550 N.4       1 SUB1        0.219
      2 C2         65.9220   39.7940    5.8220 C.3       1 SUB1       -0.035
      3 C3         66.4670   40.2840    7.1960 C.3       1 SUB1       -0.008
      4 C4         65.8930   41.6730    7.3910 C.3       1 SUB1       -0.008
      5 C5         65.9020   42.1410    8.8050 C.3       1 SUB1       -0.034
      6 N6         65.0520   43.2980    8.8800 N.4       1 SUB1        0.227
      7 C7         64.8010   44.0790   10.0130 C.3       1 SUB1       -0.029
      8 C8         65.9350   45.0240   10.2850 C.3       1 SUB1        0.027
      9 C9         65.7540   45.7360   11.5500 C.3       1 SUB1       -0.031
     10 N10        66.5480   47.0270   11.5690 N.4       1 SUB1        0.219
     11 H11        66.4762   40.1045    3.8469 H         1 SUB1        0.199
     12 H12        67.7504   40.0952    4.8889 H         1 SUB1        0.199
     13 H13        66.7565   41.4052    4.8160 H         1 SUB1        0.199
     14 H21        65.9664   38.6962    5.7684 H         1 SUB1        0.081
     15 H22        64.8818   40.1258    5.6888 H         1 SUB1        0.081
     16 H31        67.5663   40.3215    7.1817 H         1 SUB1        0.032
     17 H32        66.1334   39.6142    8.0023 H         1 SUB1        0.032
     18 H41        64.8523   41.6701    7.0346 H         1 SUB1        0.032
     19 H42        66.4846   42.3790    6.7896 H         1 SUB1        0.032
     20 H51        66.9259   42.4065    9.1067 H         1 SUB1        0.081
     21 H52        65.5187   41.3494    9.4656 H         1 SUB1        0.081
     22 H61        64.1455   42.9759    8.5790 H         1 SUB1        0.201
     23 H62        65.4241   43.9399    8.1977 H         1 SUB1        0.201
     24 H71        64.6691   43.4178   10.8822 H         1 SUB1        0.082
     25 H72        63.8811   44.6601    9.8513 H         1 SUB1        0.082
     26 H81        65.9913   45.7580    9.4677 H         1 SUB1        0.037
     27 H82        66.8733   44.4516   10.3292 H         1 SUB1        0.037
     28 H91        66.0937   45.0934   12.3756 H         1 SUB1        0.082
     29 H92        64.6870   45.9687   11.6816 H         1 SUB1        0.082
     30 H101       66.4055   47.4962   12.4497 H         1 SUB1        0.199
     31 H102       66.2387   47.6228   10.8170 H         1 SUB1        0.199
     32 H103       67.5278   46.8206   11.4530 H         1 SUB1        0.199
@<TRIPOS>BOND
     1    1    2 1  
     2    2    3 1  
     3    3    4 1  
     4    4    5 1  
     5    5    6 1  
     6    6    7 1  
     7    7    8 1  
     8    8    9 1  
     9    9   10 1  
    10    1   11 1  
    11    1   12 1  
    12    1   13 1  
    13    2   14 1  
    14    2   15 1  
    15    3   16 1  
    16    3   17 1  
    17    4   18 1  
    18    4   19 1  
    19    5   20 1  
    20    5   21 1  
    21    6   22 1  
    22    6   23 1  
    23    7   24 1  
    24    7   25 1  
    25    8   26 1  
    26    8   27 1  
    27    9   28 1  
    28    9   29 1  
    29   10   30 1  
    30   10   31 1  
    31   10   32 1  
@<TRIPOS>SUBSTRUCTURE
     1 SUB1        1 GROUP

