1fzo_ligand
  -I-interpret- 

132135  0  0  0  0  0  0  0  0999 V2000
   49.9980   56.8390    4.5850 N   0  3  0  0  0
   48.9250   57.8010    4.2470 C   0  0  0  0  0
   48.4850   57.5110    2.8140 C   0  0  0  0  0
   49.3070   57.4230    1.9050 O   0  0  0  0  0
   49.4570   59.2330    4.3770 C   0  0  0  0  0
   48.4180   60.2280    4.7980 C   0  0  0  0  0
   47.6680   60.0220    5.9540 C   0  0  0  0  0
   48.1960   61.3800    4.0510 C   0  0  0  0  0
   46.6970   60.9580    6.3700 C   0  0  0  0  0
   47.2350   62.3190    4.4490 C   0  0  0  0  0
   46.4810   62.1060    5.6170 C   0  0  0  0  0
   47.1810   57.3640    2.6330 N   0  0  0  0  0
   46.6010   57.0200    1.3440 C   0  0  0  0  0
   46.6570   58.0950    0.2830 C   0  0  0  0  0
   46.8280   59.2740    0.5800 O   0  0  0  0  0
   45.1430   56.5920    1.5520 C   0  0  0  0  0
   46.5210   57.6920   -0.9920 N   0  0  0  0  0
   46.5420   58.6680   -2.0840 C   0  0  0  0  0
   45.5140   59.7600   -1.7620 C   0  0  0  0  0
   44.4650   59.4680   -1.2110 O   0  0  0  0  0
   46.1150   57.8360   -3.2910 C   0  0  0  0  0
   46.7460   56.4700   -2.9920 C   0  0  0  0  0
   46.4670   56.3000   -1.4990 C   0  0  0  0  0
   45.8070   61.0120   -2.1120 N   0  0  0  0  0
   44.8650   62.0900   -1.8380 C   0  0  0  0  0
   43.4710   61.8100   -2.3730 C   0  0  0  0  0
   42.4610   62.1420   -1.7420 O   0  0  0  0  0
   43.4120   61.2090   -3.5560 N   0  0  0  0  0
   42.1460   60.8620   -4.1650 C   0  0  0  0  0
   42.4240   59.9640   -5.3660 C   0  0  0  0  0
   43.5810   59.7360   -5.7380 O   0  0  0  0  0
   41.3850   62.1140   -4.6290 C   0  0  0  0  0
   41.9470   62.7050   -5.9160 C   0  0  0  0  0
   41.2020   62.9810   -6.8610 O   0  0  0  0  0
   43.2540   62.9160   -5.9540 N   0  0  0  0  0
   41.3550   59.4480   -5.9500 N   0  0  0  0  0
   41.4730   58.5890   -7.1110 C   0  0  0  0  0
   40.6230   59.2360   -8.1920 C   0  0  0  0  0
   39.3930   59.1330   -8.1870 O   0  0  0  0  0
   40.9690   57.1720   -6.8020 C   0  0  0  0  0
   41.7980   56.4070   -5.7760 C   0  0  0  0  0
   41.5060   56.4850   -4.4190 C   0  0  0  0  0
   42.8650   55.5800   -6.1780 C   0  0  0  0  0
   42.2500   55.7600   -3.4850 C   0  0  0  0  0
   43.6160   54.8550   -5.2550 C   0  0  0  0  0
   43.3020   54.9510   -3.9090 C   0  0  0  0  0
   44.0390   54.2570   -2.9800 O   0  0  0  0  0
   41.2700   59.9470   -9.1200 N   0  0  0  0  0
   40.5490   60.6180  -10.2130 C   0  0  0  0  0
   39.5750   59.6530  -10.8850 C   0  0  0  0  0
   39.9070   58.4900  -11.1000 O   0  0  0  0  0
   41.6730   61.0400  -11.1590 C   0  0  0  0  0
   42.8400   61.2490  -10.2330 C   0  0  0  0  0
   42.7300   60.0840   -9.2760 C   0  0  0  0  0
   38.3820   60.1330  -11.2210 N   0  0  0  0  0
   37.3880   59.2820  -11.8620 C   0  0  0  0  0
   37.8930   58.7890  -13.2090 C   0  0  0  0  0
   38.6540   59.4710  -13.8850 O   0  0  0  0  0
   36.0800   60.0320  -12.0420 C   0  0  0  0  0
   37.4750   57.5800  -13.5670 N   0  0  0  0  0
   37.8540   56.9430  -14.8270 C   0  0  0  0  0
   37.1400   57.5810  -16.0360 C   0  0  0  0  0
   36.2100   58.3950  -15.8230 O   0  0  0  0  0
   37.5030   55.4460  -14.7620 C   0  0  0  0  0
   38.1520   54.6360  -13.6420 C   0  0  0  0  0
   37.6350   53.2080  -13.6940 C   0  0  0  0  0
   39.6620   54.6480  -13.7860 C   0  0  0  0  0
   37.5070   57.2420  -17.1890 O   0  5  0  0  0
   50.1627   56.2296    3.7991 H   0  0  0  0  0
   48.0732   57.6675    4.9300 H   0  0  0  0  0
   49.8594   59.5435    3.4015 H   0  0  0  0  0
   50.2640   59.2368    5.1245 H   0  0  0  0  0
   47.8331   59.1277    6.5439 H   0  0  0  0  0
   48.7733   61.5536    3.1501 H   0  0  0  0  0
   46.1226   60.7824    7.2723 H   0  0  0  0  0
   47.0724   63.2114    3.8554 H   0  0  0  0  0
   45.7375   62.8313    5.9273 H   0  0  0  0  0
   46.5705   57.4948    3.4142 H   0  0  0  0  0
   47.1641   56.1577    0.9575 H   0  0  0  0  0
   44.5785   57.4209    2.0039 H   0  0  0  0  0
   45.1090   55.7184    2.2195 H   0  0  0  0  0
   44.6958   56.3298    0.5818 H   0  0  0  0  0
   47.5393   59.1086   -2.2301 H   0  0  0  0  0
   46.5097   58.2602   -4.2260 H   0  0  0  0  0
   45.0194   57.7623   -3.3556 H   0  0  0  0  0
   47.8268   56.4774   -3.1966 H   0  0  0  0  0
   46.2671   55.6730   -3.5797 H   0  0  0  0  0
   47.2356   55.6747   -1.0213 H   0  0  0  0  0
   45.4753   55.8552   -1.3297 H   0  0  0  0  0
   46.6761   61.2126   -2.5642 H   0  0  0  0  0
   44.8008   62.2311   -0.7490 H   0  0  0  0  0
   45.2414   63.0118   -2.3055 H   0  0  0  0  0
   44.2615   60.9914   -4.0366 H   0  0  0  0  0
   41.5294   60.3194   -3.4333 H   0  0  0  0  0
   41.4454   62.8753   -3.8373 H   0  0  0  0  0
   40.3323   61.8429   -4.7974 H   0  0  0  0  0
   43.8204   62.6890   -5.1617 H   0  0  0  0  0
   43.6745   63.3023   -6.7750 H   0  0  0  0  0
   40.4480   59.6547   -5.5832 H   0  0  0  0  0
   42.5226   58.5352   -7.4356 H   0  0  0  0  0
   40.9695   56.5967   -7.7396 H   0  0  0  0  0
   39.9402   57.2505   -6.4206 H   0  0  0  0  0
   40.6915   57.1158   -4.0817 H   0  0  0  0  0
   43.1080   55.5057   -7.2318 H   0  0  0  0  0
   42.0088   55.8269   -2.4303 H   0  0  0  0  0
   44.4340   54.2250   -5.5853 H   0  0  0  0  0
   44.7137   53.7559   -3.4229 H   0  0  0  0  0
   39.9974   61.4953   -9.8441 H   0  0  0  0  0
   41.4163   61.9705  -11.6865 H   0  0  0  0  0
   41.8884   60.2498  -11.8932 H   0  0  0  0  0
   42.7547   62.2074   -9.7000 H   0  0  0  0  0
   43.7917   61.2193  -10.7838 H   0  0  0  0  0
   43.2144   60.3102   -8.3147 H   0  0  0  0  0
   43.1728   59.1727   -9.7042 H   0  0  0  0  0
   38.1638   61.0903  -11.0315 H   0  0  0  0  0
   37.2066   58.4108  -11.2155 H   0  0  0  0  0
   36.2493   60.9186  -12.6707 H   0  0  0  0  0
   35.6995   60.3467  -11.0591 H   0  0  0  0  0
   35.3437   59.3740  -12.5266 H   0  0  0  0  0
   36.8718   57.0814  -12.9444 H   0  0  0  0  0
   38.9399   57.0535  -14.9630 H   0  0  0  0  0
   37.8026   54.9919  -15.7180 H   0  0  0  0  0
   36.4125   55.3645  -14.6432 H   0  0  0  0  0
   37.8828   55.0821  -12.6732 H   0  0  0  0  0
   36.5440   53.2077  -13.5537 H   0  0  0  0  0
   38.1075   52.6176  -12.8952 H   0  0  0  0  0
   37.8792   52.7649  -14.6707 H   0  0  0  0  0
   39.9420   54.1981  -14.7499 H   0  0  0  0  0
   40.1131   54.0693  -12.9665 H   0  0  0  0  0
   40.0260   55.6853  -13.7460 H   0  0  0  0  0
   49.7182   56.2902    5.3829 H   0  0  0  0  0
   50.8438   57.3420    4.8031 H   0  0  0  0  0
  3  2  1  0  0  0
  2  5  1  0  0  0
  2  1  1  0  0  0
  5  6  1  0  0  0
  6  8  4  0  0  0
  6  7  4  0  0  0
  7  9  4  0  0  0
  9 11  4  0  0  0
 10 11  4  0  0  0
  8 10  4  0  0  0
  3  4  2  0  0  0
 14 13  1  0  0  0
 13 16  1  0  0  0
 13 12  1  0  0  0
 14 15  2  0  0  0
 18 17  1  0  0  0
 18 21  1  0  0  0
 19 18  1  0  0  0
 19 20  2  0  0  0
 21 22  1  0  0  0
 22 23  1  0  0  0
 17 23  1  0  0  0
 26 25  1  0  0  0
 25 24  1  0  0  0
 26 27  2  0  0  0
 30 29  1  0  0  0
 29 32  1  0  0  0
 29 28  1  0  0  0
 32 33  1  0  0  0
 33 34  2  0  0  0
 33 35  1  0  0  0
 30 31  2  0  0  0
 38 37  1  0  0  0
 37 40  1  0  0  0
 37 36  1  0  0  0
 40 41  1  0  0  0
 41 43  4  0  0  0
 41 42  4  0  0  0
 42 44  4  0  0  0
 44 46  4  0  0  0
 46 47  1  0  0  0
 45 46  4  0  0  0
 43 45  4  0  0  0
 38 39  2  0  0  0
 49 48  1  0  0  0
 49 52  1  0  0  0
 50 49  1  0  0  0
 50 51  2  0  0  0
 52 53  1  0  0  0
 53 54  1  0  0  0
 48 54  1  0  0  0
 57 56  1  0  0  0
 56 59  1  0  0  0
 56 55  1  0  0  0
 57 58  2  0  0  0
 61 62  1  0  0  0
 61 64  1  0  0  0
 60 61  1  0  0  0
 64 65  1  0  0  0
 65 67  1  0  0  0
 65 66  1  0  0  0
 62 68  1  0  0  0
 62 63  2  0  0  0
 12  3  1  0  0  0
 17 14  1  0  0  0
 24 19  1  0  0  0
 28 26  1  0  0  0
 36 30  1  0  0  0
 48 38  1  0  0  0
 55 50  1  0  0  0
 57 60  1  0  0  0
  1 69  1  0  0  0
  2 70  1  0  0  0
  5 71  1  0  0  0
  5 72  1  0  0  0
  7 73  1  0  0  0
  8 74  1  0  0  0
  9 75  1  0  0  0
 10 76  1  0  0  0
 11 77  1  0  0  0
 12 78  1  0  0  0
 13 79  1  0  0  0
 16 80  1  0  0  0
 16 81  1  0  0  0
 16 82  1  0  0  0
 18 83  1  0  0  0
 21 84  1  0  0  0
 21 85  1  0  0  0
 22 86  1  0  0  0
 22 87  1  0  0  0
 23 88  1  0  0  0
 23 89  1  0  0  0
 24 90  1  0  0  0
 25 91  1  0  0  0
 25 92  1  0  0  0
 28 93  1  0  0  0
 29 94  1  0  0  0
 32 95  1  0  0  0
 32 96  1  0  0  0
 35 97  1  0  0  0
 35 98  1  0  0  0
 36 99  1  0  0  0
 37100  1  0  0  0
 40101  1  0  0  0
 40102  1  0  0  0
 42103  1  0  0  0
 43104  1  0  0  0
 44105  1  0  0  0
 45106  1  0  0  0
 47107  1  0  0  0
 49108  1  0  0  0
 52109  1  0  0  0
 52110  1  0  0  0
 53111  1  0  0  0
 53112  1  0  0  0
 54113  1  0  0  0
 54114  1  0  0  0
 55115  1  0  0  0
 56116  1  0  0  0
 59117  1  0  0  0
 59118  1  0  0  0
 59119  1  0  0  0
 60120  1  0  0  0
 61121  1  0  0  0
 64122  1  0  0  0
 64123  1  0  0  0
 65124  1  0  0  0
 66125  1  0  0  0
 66126  1  0  0  0
 66127  1  0  0  0
 67128  1  0  0  0
 67129  1  0  0  0
 67130  1  0  0  0
  1131  1  0  0  0
  1132  1  0  0  0
M  END
$$$$
