### 
### Created by X-TOOL on Mon Oct 24 22:41:44 2005
### 

@<TRIPOS>MOLECULE
1fzo_ligand
  132   135     1     0     0
SMALL
GAST_HUCK


@<TRIPOS>ATOM
      1 N          49.9980   56.8390    4.5850 N.4       1 SUB1        0.239
      2 CA         48.9250   57.8010    4.2470 C.3       1 SUB1        0.074
      3 C          48.4850   57.5110    2.8140 C.2       1 SUB1        0.229
      4 O          49.3070   57.4230    1.9050 O.2       1 SUB1       -0.391
      5 CB         49.4570   59.2330    4.3770 C.3       1 SUB1        0.042
      6 CG         48.4180   60.2280    4.7980 C.ar      1 SUB1       -0.035
      7 CD1        47.6680   60.0220    5.9540 C.ar      1 SUB1       -0.060
      8 CD2        48.1960   61.3800    4.0510 C.ar      1 SUB1       -0.060
      9 CE1        46.6970   60.9580    6.3700 C.ar      1 SUB1       -0.069
     10 CE2        47.2350   62.3190    4.4490 C.ar      1 SUB1       -0.069
     11 CZ         46.4810   62.1060    5.6170 C.ar      1 SUB1       -0.069
     12 N          47.1810   57.3640    2.6330 N.am      1 SUB1       -0.261
     13 CA         46.6010   57.0200    1.3440 C.3       1 SUB1        0.128
     14 C          46.6570   58.0950    0.2830 C.2       1 SUB1        0.206
     15 O          46.8280   59.2740    0.5800 O.2       1 SUB1       -0.394
     16 CB         45.1430   56.5920    1.5520 C.3       1 SUB1       -0.024
     17 N          46.5210   57.6920   -0.9920 N.am      1 SUB1       -0.250
     18 CA         46.5420   58.6680   -2.0840 C.3       1 SUB1        0.134
     19 C          45.5140   59.7600   -1.7620 C.2       1 SUB1        0.204
     20 O          44.4650   59.4680   -1.2110 O.2       1 SUB1       -0.394
     21 CB         46.1150   57.8360   -3.2910 C.3       1 SUB1       -0.010
     22 CG         46.7460   56.4700   -2.9920 C.3       1 SUB1       -0.028
     23 CD         46.4670   56.3000   -1.4990 C.3       1 SUB1        0.037
     24 N          45.8070   61.0120   -2.1120 N.am      1 SUB1       -0.266
     25 CA         44.8650   62.0900   -1.8380 C.3       1 SUB1        0.120
     26 C          43.4710   61.8100   -2.3730 C.2       1 SUB1        0.201
     27 O          42.4610   62.1420   -1.7420 O.2       1 SUB1       -0.395
     28 N          43.4120   61.2090   -3.5560 N.am      1 SUB1       -0.262
     29 CA         42.1460   60.8620   -4.1650 C.3       1 SUB1        0.148
     30 C          42.4240   59.9640   -5.3660 C.2       1 SUB1        0.206
     31 O          43.5810   59.7360   -5.7380 O.2       1 SUB1       -0.394
     32 CB         41.3850   62.1140   -4.6290 C.3       1 SUB1        0.077
     33 CG         41.9470   62.7050   -5.9160 C.2       1 SUB1        0.178
     34 OD1        41.2020   62.9810   -6.8610 O.2       1 SUB1       -0.397
     35 ND2        43.2540   62.9160   -5.9540 N.am      1 SUB1       -0.301
     36 N          41.3550   59.4480   -5.9500 N.am      1 SUB1       -0.262
     37 CA         41.4730   58.5890   -7.1110 C.3       1 SUB1        0.139
     38 C          40.6230   59.2360   -8.1920 C.2       1 SUB1        0.208
     39 O          39.3930   59.1330   -8.1870 O.2       1 SUB1       -0.394
     40 CB         40.9690   57.1720   -6.8020 C.3       1 SUB1        0.016
     41 CG         41.7980   56.4070   -5.7760 C.ar      1 SUB1       -0.049
     42 CD1        41.5060   56.4850   -4.4190 C.ar      1 SUB1       -0.068
     43 CD2        42.8650   55.5800   -6.1780 C.ar      1 SUB1       -0.068
     44 CE1        42.2500   55.7600   -3.4850 C.ar      1 SUB1       -0.040
     45 CE2        43.6160   54.8550   -5.2550 C.ar      1 SUB1       -0.040
     46 CZ         43.3020   54.9510   -3.9090 C.ar      1 SUB1        0.080
     47 OH         44.0390   54.2570   -2.9800 O.3       1 SUB1       -0.338
     48 N          41.2700   59.9470   -9.1200 N.am      1 SUB1       -0.250
     49 CA         40.5490   60.6180  -10.2130 C.3       1 SUB1        0.134
     50 C          39.5750   59.6530  -10.8850 C.2       1 SUB1        0.204
     51 O          39.9070   58.4900  -11.1000 O.2       1 SUB1       -0.394
     52 CB         41.6730   61.0400  -11.1590 C.3       1 SUB1       -0.010
     53 CG         42.8400   61.2490  -10.2330 C.3       1 SUB1       -0.028
     54 CD         42.7300   60.0840   -9.2760 C.3       1 SUB1        0.037
     55 N          38.3820   60.1330  -11.2210 N.am      1 SUB1       -0.264
     56 CA         37.3880   59.2820  -11.8620 C.3       1 SUB1        0.128
     57 C          37.8930   58.7890  -13.2090 C.2       1 SUB1        0.205
     58 O          38.6540   59.4710  -13.8850 O.2       1 SUB1       -0.394
     59 CB         36.0800   60.0320  -12.0420 C.3       1 SUB1       -0.024
     60 N          37.4750   57.5800  -13.5670 N.am      1 SUB1       -0.268
     61 CA         37.8540   56.9430  -14.8270 C.3       1 SUB1        0.082
     62 C          37.1400   57.5810  -16.0360 C.2       1 SUB1        0.053
     63 O          36.2100   58.3950  -15.8230 O.co2     1 SUB1       -0.564
     64 CB         37.5030   55.4460  -14.7620 C.3       1 SUB1       -0.016
     65 CG         38.1520   54.6360  -13.6420 C.3       1 SUB1       -0.042
     66 CD1        37.6350   53.2080  -13.6940 C.3       1 SUB1       -0.062
     67 CD2        39.6620   54.6480  -13.7860 C.3       1 SUB1       -0.062
     68 OXT        37.5070   57.2420  -17.1890 O.co2     1 SUB1       -0.564
     69 H11        50.1627   56.2296    3.7991 H         1 SUB1        0.202
     70 H21        48.0732   57.6675    4.9300 H         1 SUB1        0.112
     71 H51        49.8594   59.5435    3.4015 H         1 SUB1        0.051
     72 H52        50.2640   59.2368    5.1245 H         1 SUB1        0.051
     73 H71        47.8331   59.1277    6.5439 H         1 SUB1        0.056
     74 H81        48.7733   61.5536    3.1501 H         1 SUB1        0.056
     75 H91        46.1226   60.7824    7.2723 H         1 SUB1        0.060
     76 H101       47.0724   63.2114    3.8554 H         1 SUB1        0.060
     77 H111       45.7375   62.8313    5.9273 H         1 SUB1        0.056
     78 H121       46.5705   57.4948    3.4142 H         1 SUB1        0.188
     79 H131       47.1641   56.1577    0.9575 H         1 SUB1        0.080
     80 H161       44.5785   57.4209    2.0039 H         1 SUB1        0.028
     81 H162       45.1090   55.7184    2.2195 H         1 SUB1        0.028
     82 H163       44.6958   56.3298    0.5818 H         1 SUB1        0.028
     83 H181       47.5393   59.1086   -2.2301 H         1 SUB1        0.080
     84 H211       46.5097   58.2602   -4.2260 H         1 SUB1        0.031
     85 H212       45.0194   57.7623   -3.3556 H         1 SUB1        0.031
     86 H221       47.8268   56.4774   -3.1966 H         1 SUB1        0.029
     87 H222       46.2671   55.6730   -3.5797 H         1 SUB1        0.029
     88 H231       47.2356   55.6747   -1.0213 H         1 SUB1        0.052
     89 H232       45.4753   55.8552   -1.3297 H         1 SUB1        0.052
     90 H241       46.6761   61.2126   -2.5642 H         1 SUB1        0.188
     91 H251       44.8008   62.2311   -0.7490 H         1 SUB1        0.076
     92 H252       45.2414   63.0118   -2.3055 H         1 SUB1        0.076
     93 H281       44.2615   60.9914   -4.0366 H         1 SUB1        0.189
     94 H291       41.5294   60.3194   -3.4333 H         1 SUB1        0.083
     95 H321       41.4454   62.8753   -3.8373 H         1 SUB1        0.055
     96 H322       40.3323   61.8429   -4.7974 H         1 SUB1        0.055
     97 H351       43.8204   62.6890   -5.1617 H         1 SUB1        0.181
     98 H352       43.6745   63.3023   -6.7750 H         1 SUB1        0.181
     99 H361       40.4480   59.6547   -5.5832 H         1 SUB1        0.189
    100 H371       42.5226   58.5352   -7.4356 H         1 SUB1        0.082
    101 H401       40.9695   56.5967   -7.7396 H         1 SUB1        0.045
    102 H402       39.9402   57.2505   -6.4206 H         1 SUB1        0.045
    103 H421       40.6915   57.1158   -4.0817 H         1 SUB1        0.053
    104 H431       43.1080   55.5057   -7.2318 H         1 SUB1        0.053
    105 H441       42.0088   55.8269   -2.4303 H         1 SUB1        0.052
    106 H451       44.4340   54.2250   -5.5853 H         1 SUB1        0.052
    107 H471       44.7137   53.7559   -3.4229 H         1 SUB1        0.246
    108 H491       39.9974   61.4953   -9.8441 H         1 SUB1        0.080
    109 H521       41.4163   61.9705  -11.6865 H         1 SUB1        0.031
    110 H522       41.8884   60.2498  -11.8932 H         1 SUB1        0.031
    111 H531       42.7547   62.2074   -9.7000 H         1 SUB1        0.029
    112 H532       43.7917   61.2193  -10.7838 H         1 SUB1        0.029
    113 H541       43.2144   60.3102   -8.3147 H         1 SUB1        0.052
    114 H542       43.1728   59.1727   -9.7042 H         1 SUB1        0.052
    115 H551       38.1638   61.0903  -11.0315 H         1 SUB1        0.188
    116 H561       37.2066   58.4108  -11.2155 H         1 SUB1        0.080
    117 H591       36.2493   60.9186  -12.6707 H         1 SUB1        0.028
    118 H592       35.6995   60.3467  -11.0591 H         1 SUB1        0.028
    119 H593       35.3437   59.3740  -12.5266 H         1 SUB1        0.028
    120 H601       36.8718   57.0814  -12.9444 H         1 SUB1        0.190
    121 H611       38.9399   57.0535  -14.9630 H         1 SUB1        0.078
    122 H641       37.8026   54.9919  -15.7180 H         1 SUB1        0.033
    123 H642       36.4125   55.3645  -14.6432 H         1 SUB1        0.033
    124 H651       37.8828   55.0821  -12.6732 H         1 SUB1        0.030
    125 H661       36.5440   53.2077  -13.5537 H         1 SUB1        0.023
    126 H662       38.1075   52.6176  -12.8952 H         1 SUB1        0.023
    127 H663       37.8792   52.7649  -14.6707 H         1 SUB1        0.023
    128 H671       39.9420   54.1981  -14.7499 H         1 SUB1        0.023
    129 H672       40.1131   54.0693  -12.9665 H         1 SUB1        0.023
    130 H673       40.0260   55.6853  -13.7460 H         1 SUB1        0.023
    131 H12        49.7182   56.2902    5.3829 H         1 SUB1        0.202
    132 H13        50.8438   57.3420    4.8031 H         1 SUB1        0.202
@<TRIPOS>BOND
     1    3    2 1  
     2    2    5 1  
     3    2    1 1  
     4    5    6 1  
     5    6    8 ar 
     6    6    7 ar 
     7    7    9 ar 
     8    9   11 ar 
     9   10   11 ar 
    10    8   10 ar 
    11    3    4 2  
    12   14   13 1  
    13   13   16 1  
    14   13   12 1  
    15   14   15 2  
    16   18   17 1  
    17   18   21 1  
    18   19   18 1  
    19   19   20 2  
    20   21   22 1  
    21   22   23 1  
    22   17   23 1  
    23   26   25 1  
    24   25   24 1  
    25   26   27 2  
    26   30   29 1  
    27   29   32 1  
    28   29   28 1  
    29   32   33 1  
    30   33   34 2  
    31   33   35 am 
    32   30   31 2  
    33   38   37 1  
    34   37   40 1  
    35   37   36 1  
    36   40   41 1  
    37   41   43 ar 
    38   41   42 ar 
    39   42   44 ar 
    40   44   46 ar 
    41   46   47 1  
    42   45   46 ar 
    43   43   45 ar 
    44   38   39 2  
    45   49   48 1  
    46   49   52 1  
    47   50   49 1  
    48   50   51 2  
    49   52   53 1  
    50   53   54 1  
    51   48   54 1  
    52   57   56 1  
    53   56   59 1  
    54   56   55 1  
    55   57   58 2  
    56   61   62 1  
    57   61   64 1  
    58   60   61 1  
    59   64   65 1  
    60   65   67 1  
    61   65   66 1  
    62   62   68 2  
    63   62   63 2  
    64   12    3 am 
    65   17   14 am 
    66   24   19 am 
    67   28   26 am 
    68   36   30 am 
    69   48   38 am 
    70   55   50 am 
    71   57   60 am 
    72    1   69 1  
    73    2   70 1  
    74    5   71 1  
    75    5   72 1  
    76    7   73 1  
    77    8   74 1  
    78    9   75 1  
    79   10   76 1  
    80   11   77 1  
    81   12   78 1  
    82   13   79 1  
    83   16   80 1  
    84   16   81 1  
    85   16   82 1  
    86   18   83 1  
    87   21   84 1  
    88   21   85 1  
    89   22   86 1  
    90   22   87 1  
    91   23   88 1  
    92   23   89 1  
    93   24   90 1  
    94   25   91 1  
    95   25   92 1  
    96   28   93 1  
    97   29   94 1  
    98   32   95 1  
    99   32   96 1  
   100   35   97 1  
   101   35   98 1  
   102   36   99 1  
   103   37  100 1  
   104   40  101 1  
   105   40  102 1  
   106   42  103 1  
   107   43  104 1  
   108   44  105 1  
   109   45  106 1  
   110   47  107 1  
   111   49  108 1  
   112   52  109 1  
   113   52  110 1  
   114   53  111 1  
   115   53  112 1  
   116   54  113 1  
   117   54  114 1  
   118   55  115 1  
   119   56  116 1  
   120   59  117 1  
   121   59  118 1  
   122   59  119 1  
   123   60  120 1  
   124   61  121 1  
   125   64  122 1  
   126   64  123 1  
   127   65  124 1  
   128   66  125 1  
   129   66  126 1  
   130   66  127 1  
   131   67  128 1  
   132   67  129 1  
   133   67  130 1  
   134    1  131 1  
   135    1  132 1  
@<TRIPOS>SUBSTRUCTURE
     1 SUB1        1 GROUP

