### 
### Created by X-TOOL on Sun Jun  3 11:51:49 2007
### 

@<TRIPOS>MOLECULE
2aod_ligand
  126   125     1     0     0
SMALL
GAST_HUCK


@<TRIPOS>ATOM
      1 C          23.6900   24.4910   19.8030 C.2       1 SUB1        0.175
      2 O          23.3550   24.9480   20.9000 O.2       1 SUB1       -0.397
      3 CH3        24.3740   23.1370   19.6660 C.3       1 SUB1        0.026
      4 N          23.4670   25.1940   18.7010 N.am      1 SUB1       -0.264
      5 CA         22.9260   26.5240   18.6150 C.3       1 SUB1        0.157
      6 C          21.5390   26.6160   17.9360 C.2       1 SUB1        0.206
      7 O          20.8480   27.6270   17.9900 O.2       1 SUB1       -0.394
      8 CB         23.8890   27.4460   17.8340 C.3       1 SUB1        0.095
      9 OG1        24.1220   26.9880   16.4930 O.3       1 SUB1       -0.375
     10 CG2        25.2650   27.4890   18.5050 C.3       1 SUB1       -0.034
     11 CD1        24.6460   26.0750   15.5440 C.3       1 SUB1        0.037
     12 N          21.0470   25.5770   17.2940 N.am      1 SUB1       -0.263
     13 CA         19.7260   25.5600   16.6670 C.3       1 SUB1        0.133
     14 C          18.8840   24.4780   17.2950 C.2       1 SUB1        0.202
     15 O          18.8860   23.3300   16.8310 O.2       1 SUB1       -0.394
     16 CB         19.8430   25.3580   15.1460 C.3       1 SUB1       -0.004
     17 CG1        20.8810   26.2700   14.5090 C.3       1 SUB1       -0.049
     18 CG2        18.5020   25.4860   14.4760 C.3       1 SUB1       -0.058
     19 CD1        20.6860   27.7510   14.6040 C.3       1 SUB1       -0.065
     20 N          18.1720   24.8230   18.3390 N.am      1 SUB1       -0.277
     21 CA         17.4150   23.8220   19.0930 C.3       1 SUB1        0.082
     22 C          15.9130   23.8710   18.8590 C.3       1 SUB1       -0.008
     23 CB         17.7040   23.9740   20.5970 C.3       1 SUB1       -0.025
     24 CG         19.1900   24.0820   20.9290 C.3       1 SUB1       -0.051
     25 CD         19.9510   22.8410   20.5530 C.3       1 SUB1       -0.056
     26 CE         19.3540   21.5400   21.0950 C.3       1 SUB1       -0.065
     27 N          15.5820   23.6670   17.4830 N.4       1 SUB1        0.248
     28 CA         14.3430   23.0170   17.0760 C.3       1 SUB1        0.067
     29 C          14.3180   21.5580   17.5440 C.2       1 SUB1        0.227
     30 O          15.2830   20.7940   17.5200 O.2       1 SUB1       -0.391
     31 CB         14.1100   23.0340   15.5790 C.3       1 SUB1        0.008
     32 CG         13.0460   22.2360   14.8760 C.3       1 SUB1       -0.046
     33 CD         13.5680   21.0860   14.0360 C.3       1 SUB1       -0.056
     34 CE         14.5360   21.4330   12.9140 C.3       1 SUB1       -0.065
     35 N          13.1460   21.1070   17.9520 N.am      1 SUB1       -0.261
     36 CA         13.0210   19.7060   18.3690 C.3       1 SUB1        0.133
     37 C          11.5960   19.2560   18.0150 C.2       1 SUB1        0.204
     38 O          10.5890   19.9200   18.2910 O.2       1 SUB1       -0.394
     39 CB         13.3990   19.4790   19.8310 C.3       1 SUB1        0.004
     40 CG         13.2350   18.0900   20.3770 C.3       1 SUB1        0.041
     41 CD         11.8560   17.7810   20.8890 C.2       1 SUB1        0.174
     42 OE1        11.1500   18.7020   21.2310 O.2       1 SUB1       -0.397
     43 NE2        11.3750   16.5690   20.8720 N.am      1 SUB1       -0.301
     44 N          11.5170   18.0500   17.4710 N.am      1 SUB1       -0.264
     45 CA         10.2320   17.4600   17.0810 C.3       1 SUB1        0.131
     46 C          10.1360   16.0780   17.7140 C.2       1 SUB1        0.199
     47 O          11.1010   15.3060   17.6730 O.2       1 SUB1       -0.395
     48 CB         10.1140   17.3700   15.5750 C.3       1 SUB1       -0.009
     49 CG         10.1780   18.6100   14.7340 C.3       1 SUB1       -0.016
     50 CD          9.9060   18.3160   13.2640 C.3       1 SUB1        0.063
     51 NE          8.7370   18.9770   12.6640 N.pl3     1 SUB1       -0.272
     52 CZ          8.1570   18.5960   11.5270 C.cat     1 SUB1        0.288
     53 NH1         8.6190   17.5450   10.8390 N.pl3     1 SUB1       -0.285
     54 NH2         7.1000   19.1970   10.9830 N.pl3     1 SUB1       -0.285
     55 N           8.9390   15.6170   18.3610 N.am      1 SUB1       -0.299
     56 H          25.3114   23.1470   20.2222 H         1 SUB1        0.047
     57 H          23.7218   22.3599   20.0646 H         1 SUB1        0.047
     58 H          24.5766   22.9385   18.6135 H         1 SUB1        0.047
     59 H          23.7051   24.7424   17.8180 H         1 SUB1        0.188
     60 H          22.8055   26.8386   19.6516 H         1 SUB1        0.083
     61 H          23.4071   28.4236   17.8232 H         1 SUB1        0.064
     62 H          25.7027   26.4907   18.4979 H         1 SUB1        0.026
     63 H          25.9127   28.1750   17.9591 H         1 SUB1        0.026
     64 H          25.1555   27.8318   19.5339 H         1 SUB1        0.026
     65 H          25.7286   26.0170   15.6568 H         1 SUB1        0.052
     66 H          24.2089   25.0903   15.7093 H         1 SUB1        0.052
     67 H          24.4021   26.4181   14.5386 H         1 SUB1        0.052
     68 H          21.6202   24.7357   17.2304 H         1 SUB1        0.188
     69 H          19.2419   26.5226   16.8317 H         1 SUB1        0.080
     70 H          20.1990   24.3395   14.9906 H         1 SUB1        0.034
     71 H          20.8415   26.0454   13.4431 H         1 SUB1        0.027
     72 H          21.8061   26.0694   15.0494 H         1 SUB1        0.027
     73 H          17.8238   24.7326   14.8765 H         1 SUB1        0.023
     74 H          18.0960   26.4797   14.6654 H         1 SUB1        0.023
     75 H          18.6181   25.3382   13.4023 H         1 SUB1        0.023
     76 H          19.7449   28.0236   14.1265 H         1 SUB1        0.023
     77 H          20.6616   28.0464   15.6529 H         1 SUB1        0.023
     78 H          21.5100   28.2576   14.1016 H         1 SUB1        0.023
     79 H          18.1447   25.8002   18.6300 H         1 SUB1        0.186
     80 H          17.7515   22.8524   18.7260 H         1 SUB1        0.061
     81 H          15.5524   24.8560   19.1553 H         1 SUB1        0.084
     82 H          15.4494   23.0766   19.4439 H         1 SUB1        0.084
     83 H          17.3233   23.0815   21.0937 H         1 SUB1        0.029
     84 H          17.2283   24.8970   20.9285 H         1 SUB1        0.029
     85 H          19.2863   24.2244   22.0054 H         1 SUB1        0.027
     86 H          19.6031   24.9164   20.3623 H         1 SUB1        0.027
     87 H          20.9484   22.9368   20.9821 H         1 SUB1        0.026
     88 H          19.9304   22.7720   19.4654 H         1 SUB1        0.026
     89 H          19.3293   21.5791   22.1840 H         1 SUB1        0.023
     90 H          18.3409   21.4191   20.7114 H         1 SUB1        0.023
     91 H          19.9681   20.6986   20.7742 H         1 SUB1        0.023
     92 H          16.3070   23.0295   17.1536 H         1 SUB1        0.204
     93 H          15.4882   24.6139   17.1157 H         1 SUB1        0.204
     94 H          13.5482   23.5952   17.5473 H         1 SUB1        0.110
     95 H          15.0299   22.5969   15.1907 H         1 SUB1        0.035
     96 H          13.7934   24.0615   15.3997 H         1 SUB1        0.035
     97 H          12.5341   22.9181   14.1972 H         1 SUB1        0.027
     98 H          12.4118   21.8021   15.6491 H         1 SUB1        0.027
     99 H          12.6940   20.6513   13.5509 H         1 SUB1        0.026
    100 H          14.1239   20.4457   14.7210 H         1 SUB1        0.026
    101 H          14.0496   22.1113   12.2130 H         1 SUB1        0.023
    102 H          15.4193   21.9143   13.3338 H         1 SUB1        0.023
    103 H          14.8300   20.5210   12.3945 H         1 SUB1        0.023
    104 H          12.3359   21.7263   17.9770 H         1 SUB1        0.189
    105 H          13.7402   19.0857   17.8341 H         1 SUB1        0.080
    106 H          12.7223   20.1060   20.4115 H         1 SUB1        0.034
    107 H          14.4646   19.6983   19.8977 H         1 SUB1        0.034
    108 H          13.9175   17.9964   21.2217 H         1 SUB1        0.050
    109 H          13.4334   17.3993   19.5574 H         1 SUB1        0.050
    110 H          10.4071   16.4005   21.1463 H         1 SUB1        0.181
    111 H          11.9666   15.7895   20.5844 H         1 SUB1        0.181
    112 H          12.3736   17.5174   17.3193 H         1 SUB1        0.188
    113 H           9.4132   18.0889   17.4304 H         1 SUB1        0.080
    114 H           9.1097   16.9814   15.4062 H         1 SUB1        0.031
    115 H          10.9868   16.7925   15.2704 H         1 SUB1        0.031
    116 H          11.1810   19.0282   14.8184 H         1 SUB1        0.030
    117 H           9.4161   19.3034   15.0900 H         1 SUB1        0.030
    118 H           9.7100   17.2455   13.2030 H         1 SUB1        0.069
    119 H          10.7737   18.6863   12.7180 H         1 SUB1        0.069
    120 H           8.3437   19.7819   13.1518 H         1 SUB1        0.264
    121 H           9.4254   17.0243   11.1839 H         1 SUB1        0.262
    122 H           8.1647   17.2648    9.9698 H         1 SUB1        0.262
    123 H           6.6814   20.0063   11.4415 H         1 SUB1        0.262
    124 H           6.7092   18.8479   10.1079 H         1 SUB1        0.262
    125 H           8.9063   14.6816   18.7665 H         1 SUB1        0.182
    126 H           8.1219   16.2251   18.4149 H         1 SUB1        0.182
@<TRIPOS>BOND
     1    1    2 2  
     2    1    3 1  
     3    1    4 am 
     4    4    5 1  
     5    5    6 1  
     6    5    8 1  
     7    6    7 2  
     8    6   12 am 
     9    8    9 1  
    10    8   10 1  
    11    9   11 1  
    12   12   13 1  
    13   13   14 1  
    14   13   16 1  
    15   14   15 2  
    16   14   20 am 
    17   16   17 1  
    18   16   18 1  
    19   17   19 1  
    20   20   21 1  
    21   21   22 1  
    22   21   23 1  
    23   22   27 1  
    24   23   24 1  
    25   24   25 1  
    26   25   26 1  
    27   27   28 1  
    28   28   29 1  
    29   28   31 1  
    30   29   30 2  
    31   29   35 am 
    32   31   32 1  
    33   32   33 1  
    34   33   34 1  
    35   35   36 1  
    36   36   37 1  
    37   36   39 1  
    38   37   38 2  
    39   37   44 am 
    40   39   40 1  
    41   40   41 1  
    42   41   42 2  
    43   41   43 am 
    44   44   45 1  
    45   45   46 1  
    46   45   48 1  
    47   46   47 2  
    48   46   55 am 
    49   48   49 1  
    50   49   50 1  
    51   50   51 1  
    52   51   52 1  
    53   52   53 1  
    54   52   54 1  
    55    3   56 1  
    56    3   57 1  
    57    3   58 1  
    58    4   59 1  
    59    5   60 1  
    60    8   61 1  
    61   10   62 1  
    62   10   63 1  
    63   10   64 1  
    64   11   65 1  
    65   11   66 1  
    66   11   67 1  
    67   12   68 1  
    68   13   69 1  
    69   16   70 1  
    70   17   71 1  
    71   17   72 1  
    72   18   73 1  
    73   18   74 1  
    74   18   75 1  
    75   19   76 1  
    76   19   77 1  
    77   19   78 1  
    78   20   79 1  
    79   21   80 1  
    80   22   81 1  
    81   22   82 1  
    82   23   83 1  
    83   23   84 1  
    84   24   85 1  
    85   24   86 1  
    86   25   87 1  
    87   25   88 1  
    88   26   89 1  
    89   26   90 1  
    90   26   91 1  
    91   27   92 1  
    92   27   93 1  
    93   28   94 1  
    94   31   95 1  
    95   31   96 1  
    96   32   97 1  
    97   32   98 1  
    98   33   99 1  
    99   33  100 1  
   100   34  101 1  
   101   34  102 1  
   102   34  103 1  
   103   35  104 1  
   104   36  105 1  
   105   39  106 1  
   106   39  107 1  
   107   40  108 1  
   108   40  109 1  
   109   43  110 1  
   110   43  111 1  
   111   44  112 1  
   112   45  113 1  
   113   48  114 1  
   114   48  115 1  
   115   49  116 1  
   116   49  117 1  
   117   50  118 1  
   118   50  119 1  
   119   51  120 1  
   120   53  121 1  
   121   53  122 1  
   122   54  123 1  
   123   54  124 1  
   124   55  125 1  
   125   55  126 1  
@<TRIPOS>SUBSTRUCTURE
     1 SUB1        1 GROUP

