### 
### Created by X-TOOL on Mon Oct 24 22:02:06 2005
### 

@<TRIPOS>MOLECULE
5tmn_ligand
   64    64     1     0     0
SMALL
GAST_HUCK


@<TRIPOS>ATOM
      1 H211       50.8069   18.4310   -4.0925 H         1 SUB1        0.181
      2 H221       53.5808   19.0130   -3.8402 H         1 SUB1        0.081
      3 H251       51.7505   17.5297   -1.8888 H         1 SUB1        0.032
      4 H252       52.0184   19.3053   -1.9350 H         1 SUB1        0.032
      5 H261       54.2376   17.2380   -1.5037 H         1 SUB1        0.030
      6 C          49.7310   17.9210   -8.9170 C.2       1 SUB1        0.322
      7 O          49.6240   16.7190   -9.0150 O.2       1 SUB1       -0.377
      8 OA         49.4360   18.7460   -9.8800 O.3       1 SUB1       -0.251
      9 CB         48.8800   18.2920  -11.1850 C.3       1 SUB1        0.111
     10 CG         47.5420   19.0400  -11.5680 C.ar      1 SUB1       -0.013
     11 CD1        46.4780   18.9750  -10.7030 C.ar      1 SUB1       -0.058
     12 CD2        47.3800   19.7700  -12.7250 C.ar      1 SUB1       -0.058
     13 CE1        45.2480   19.5850  -10.9620 C.ar      1 SUB1       -0.068
     14 CE2        46.1540   20.4140  -12.9580 C.ar      1 SUB1       -0.068
     15 CZ         45.1110   20.3000  -12.0940 C.ar      1 SUB1       -0.069
     16 N          50.1310   18.6280   -7.8860 N.am      1 SUB1       -0.259
     17 CA         50.4440   17.9780   -6.7000 C.3       1 SUB1        0.076
     18 P          51.7310   18.9700   -6.1030 P.3       1 SUB1        0.094
     19 O1P        53.0740   18.6410   -6.5730 O.co2     1 SUB1       -0.559
     20 O2P        51.5010   20.4720   -6.1370 O.co2     1 SUB1       -0.559
     21 N          51.7120   18.5170   -4.5090 N.am      1 SUB1       -0.315
     22 CA         52.8360   18.2290   -3.6390 C.3       1 SUB1        0.125
     23 C          53.5300   16.8860   -3.9040 C.2       1 SUB1        0.205
     24 O          54.7570   16.7750   -3.8340 O.2       1 SUB1       -0.394
     25 CB         52.4730   18.3230   -2.1310 C.3       1 SUB1       -0.010
     26 CG         53.7000   18.1610   -1.2410 C.3       1 SUB1       -0.042
     27 CD1        54.6320   19.3710   -1.4350 C.3       1 SUB1       -0.062
     28 CD2        53.2110   18.0830    0.2190 C.3       1 SUB1       -0.062
     29 N          52.7370   15.8850   -4.1940 N.am      1 SUB1       -0.268
     30 CA         53.2020   14.5210   -4.4530 C.3       1 SUB1        0.082
     31 C          52.3890   13.8360   -5.5240 C.2       1 SUB1        0.053
     32 O          51.3250   14.3630   -5.9430 O.co2     1 SUB1       -0.564
     33 CB         53.4490   13.6930   -3.1390 C.3       1 SUB1       -0.016
     34 CG         52.2500   13.4870   -2.2600 C.3       1 SUB1       -0.042
     35 CD1        52.3400   12.1690   -1.5350 C.3       1 SUB1       -0.062
     36 CD2        52.2510   14.5410   -1.1710 C.3       1 SUB1       -0.062
     37 OXT        52.7910   12.7660   -6.0710 O.co2     1 SUB1       -0.564
     38 H271       54.9536   19.4213   -2.4857 H         1 SUB1        0.023
     39 H272       55.5138   19.2624   -0.7865 H         1 SUB1        0.023
     40 H273       54.0945   20.2938   -1.1714 H         1 SUB1        0.023
     41 H281       52.6804   19.0111    0.4780 H         1 SUB1        0.023
     42 H282       54.0743   17.9552    0.8885 H         1 SUB1        0.023
     43 H283       52.5294   17.2271    0.3322 H         1 SUB1        0.023
     44 H291       51.7541   16.0630   -4.2414 H         1 SUB1        0.190
     45 H301       54.2022   14.6370   -4.8958 H         1 SUB1        0.078
     46 H331       54.2139   14.2182   -2.5482 H         1 SUB1        0.033
     47 H332       53.8274   12.7022   -3.4308 H         1 SUB1        0.033
     48 H341       51.3299   13.5391   -2.8606 H         1 SUB1        0.030
     49 H351       52.3777   11.3494   -2.2676 H         1 SUB1        0.023
     50 H352       51.4576   12.0441   -0.8903 H         1 SUB1        0.023
     51 H353       53.2504   12.1514   -0.9179 H         1 SUB1        0.023
     52 H361       53.1649   14.4430   -0.5667 H         1 SUB1        0.023
     53 H362       51.3695   14.4041   -0.5274 H         1 SUB1        0.023
     54 H363       52.2193   15.5409   -1.6284 H         1 SUB1        0.023
     55 H91        48.6755   17.2129  -11.1247 H         1 SUB1        0.078
     56 H92        49.6264   18.4805  -11.9708 H         1 SUB1        0.078
     57 H111       46.5976   18.4252   -9.7765 H         1 SUB1        0.056
     58 H121       48.1869   19.8462  -13.4449 H         1 SUB1        0.056
     59 H131       44.4224   19.4846  -10.2667 H         1 SUB1        0.060
     60 H141       46.0364   21.0179  -13.8505 H         1 SUB1        0.060
     61 H151       44.1678   20.7855  -12.3169 H         1 SUB1        0.056
     62 H161       50.2093   19.6226   -7.9540 H         1 SUB1        0.187
     63 H171       50.7810   16.9469   -6.8821 H         1 SUB1        0.055
     64 H172       49.5889   17.9675   -6.0081 H         1 SUB1        0.055
@<TRIPOS>BOND
     1   21   22 1  
     2   22   25 1  
     3   22   23 1  
     4   23   24 2  
     5   25   26 1  
     6   26   27 1  
     7   26   28 1  
     8   29   30 1  
     9   30   33 1  
    10   30   31 1  
    11   31   32 2  
    12   31   37 2  
    13   33   34 1  
    14   34   35 1  
    15   34   36 1  
    16   23   29 am 
    17    6    7 2  
    18    6    8 1  
    19   16    6 am 
    20    8    9 1  
    21    9   10 1  
    22   10   11 ar 
    23   10   12 ar 
    24   11   13 ar 
    25   12   14 ar 
    26   13   15 ar 
    27   14   15 ar 
    28   17   16 1  
    29   18   17 1  
    30   18   19 2  
    31   18   20 2  
    32   18   21 1  
    33   21    1 1  
    34   22    2 1  
    35   25    3 1  
    36   25    4 1  
    37   26    5 1  
    38   27   38 1  
    39   27   39 1  
    40   27   40 1  
    41   28   41 1  
    42   28   42 1  
    43   28   43 1  
    44   29   44 1  
    45   30   45 1  
    46   33   46 1  
    47   33   47 1  
    48   34   48 1  
    49   35   49 1  
    50   35   50 1  
    51   35   51 1  
    52   36   52 1  
    53   36   53 1  
    54   36   54 1  
    55    9   55 1  
    56    9   56 1  
    57   11   57 1  
    58   12   58 1  
    59   13   59 1  
    60   14   60 1  
    61   15   61 1  
    62   16   62 1  
    63   17   63 1  
    64   17   64 1  
@<TRIPOS>SUBSTRUCTURE
     1 SUB1        1 GROUP

