5tmn_ligand
  -I-interpret- 

 64 64  0  0  0  0  0  0  0  0999 V2000
   50.8069   18.4310   -4.0925 H   0  0  0  0  0
   53.5808   19.0130   -3.8402 H   0  0  0  0  0
   51.7505   17.5297   -1.8888 H   0  0  0  0  0
   52.0184   19.3053   -1.9350 H   0  0  0  0  0
   54.2376   17.2380   -1.5037 H   0  0  0  0  0
   49.7310   17.9210   -8.9170 C   0  0  0  0  0
   49.6240   16.7190   -9.0150 O   0  0  0  0  0
   49.4360   18.7460   -9.8800 O   0  0  0  0  0
   48.8800   18.2920  -11.1850 C   0  0  0  0  0
   47.5420   19.0400  -11.5680 C   0  0  0  0  0
   46.4780   18.9750  -10.7030 C   0  0  0  0  0
   47.3800   19.7700  -12.7250 C   0  0  0  0  0
   45.2480   19.5850  -10.9620 C   0  0  0  0  0
   46.1540   20.4140  -12.9580 C   0  0  0  0  0
   45.1110   20.3000  -12.0940 C   0  0  0  0  0
   50.1310   18.6280   -7.8860 N   0  0  0  0  0
   50.4440   17.9780   -6.7000 C   0  0  0  0  0
   51.7310   18.9700   -6.1030 P   0  0  0  0  0
   53.0740   18.6410   -6.5730 O   0  0  0  0  0
   51.5010   20.4720   -6.1370 O   0  5  0  0  0
   51.7120   18.5170   -4.5090 N   0  0  0  0  0
   52.8360   18.2290   -3.6390 C   0  0  0  0  0
   53.5300   16.8860   -3.9040 C   0  0  0  0  0
   54.7570   16.7750   -3.8340 O   0  0  0  0  0
   52.4730   18.3230   -2.1310 C   0  0  0  0  0
   53.7000   18.1610   -1.2410 C   0  0  0  0  0
   54.6320   19.3710   -1.4350 C   0  0  0  0  0
   53.2110   18.0830    0.2190 C   0  0  0  0  0
   52.7370   15.8850   -4.1940 N   0  0  0  0  0
   53.2020   14.5210   -4.4530 C   0  0  0  0  0
   52.3890   13.8360   -5.5240 C   0  0  0  0  0
   51.3250   14.3630   -5.9430 O   0  0  0  0  0
   53.4490   13.6930   -3.1390 C   0  0  0  0  0
   52.2500   13.4870   -2.2600 C   0  0  0  0  0
   52.3400   12.1690   -1.5350 C   0  0  0  0  0
   52.2510   14.5410   -1.1710 C   0  0  0  0  0
   52.7910   12.7660   -6.0710 O   0  5  0  0  0
   54.9536   19.4213   -2.4857 H   0  0  0  0  0
   55.5138   19.2624   -0.7865 H   0  0  0  0  0
   54.0945   20.2938   -1.1714 H   0  0  0  0  0
   52.6804   19.0111    0.4780 H   0  0  0  0  0
   54.0743   17.9552    0.8885 H   0  0  0  0  0
   52.5294   17.2271    0.3322 H   0  0  0  0  0
   51.7541   16.0630   -4.2414 H   0  0  0  0  0
   54.2022   14.6370   -4.8958 H   0  0  0  0  0
   54.2139   14.2182   -2.5482 H   0  0  0  0  0
   53.8274   12.7022   -3.4308 H   0  0  0  0  0
   51.3299   13.5391   -2.8606 H   0  0  0  0  0
   52.3777   11.3494   -2.2676 H   0  0  0  0  0
   51.4576   12.0441   -0.8903 H   0  0  0  0  0
   53.2504   12.1514   -0.9179 H   0  0  0  0  0
   53.1649   14.4430   -0.5667 H   0  0  0  0  0
   51.3695   14.4041   -0.5274 H   0  0  0  0  0
   52.2193   15.5409   -1.6284 H   0  0  0  0  0
   48.6755   17.2129  -11.1247 H   0  0  0  0  0
   49.6264   18.4805  -11.9708 H   0  0  0  0  0
   46.5976   18.4252   -9.7765 H   0  0  0  0  0
   48.1869   19.8462  -13.4449 H   0  0  0  0  0
   44.4224   19.4846  -10.2667 H   0  0  0  0  0
   46.0364   21.0179  -13.8505 H   0  0  0  0  0
   44.1678   20.7855  -12.3169 H   0  0  0  0  0
   50.2093   19.6226   -7.9540 H   0  0  0  0  0
   50.7810   16.9469   -6.8821 H   0  0  0  0  0
   49.5889   17.9675   -6.0081 H   0  0  0  0  0
 21 22  1  0  0  0
 22 25  1  0  0  0
 22 23  1  0  0  0
 23 24  2  0  0  0
 25 26  1  0  0  0
 26 27  1  0  0  0
 26 28  1  0  0  0
 29 30  1  0  0  0
 30 33  1  0  0  0
 30 31  1  0  0  0
 31 32  2  0  0  0
 31 37  1  0  0  0
 33 34  1  0  0  0
 34 35  1  0  0  0
 34 36  1  0  0  0
 23 29  1  0  0  0
  6  7  2  0  0  0
  6  8  1  0  0  0
 16  6  1  0  0  0
  8  9  1  0  0  0
  9 10  1  0  0  0
 10 11  4  0  0  0
 10 12  4  0  0  0
 11 13  4  0  0  0
 12 14  4  0  0  0
 13 15  4  0  0  0
 14 15  4  0  0  0
 17 16  1  0  0  0
 18 17  1  0  0  0
 18 19  2  0  0  0
 18 20  1  0  0  0
 18 21  1  0  0  0
 21  1  1  0  0  0
 22  2  1  0  0  0
 25  3  1  0  0  0
 25  4  1  0  0  0
 26  5  1  0  0  0
 27 38  1  0  0  0
 27 39  1  0  0  0
 27 40  1  0  0  0
 28 41  1  0  0  0
 28 42  1  0  0  0
 28 43  1  0  0  0
 29 44  1  0  0  0
 30 45  1  0  0  0
 33 46  1  0  0  0
 33 47  1  0  0  0
 34 48  1  0  0  0
 35 49  1  0  0  0
 35 50  1  0  0  0
 35 51  1  0  0  0
 36 52  1  0  0  0
 36 53  1  0  0  0
 36 54  1  0  0  0
  9 55  1  0  0  0
  9 56  1  0  0  0
 11 57  1  0  0  0
 12 58  1  0  0  0
 13 59  1  0  0  0
 14 60  1  0  0  0
 15 61  1  0  0  0
 16 62  1  0  0  0
 17 63  1  0  0  0
 17 64  1  0  0  0
M  END
$$$$
