### 
### Created by X-TOOL on Mon Oct 24 23:56:04 2005
### 

@<TRIPOS>MOLECULE
1f4f_ligand
   46    47     1     0     0
SMALL
GAST_HUCK


@<TRIPOS>ATOM
      1 H181       16.1317   12.5736   29.6875 H         1 SUB1        0.028
      2 H182       15.2826   13.4541   31.0029 H         1 SUB1        0.028
      3 H191       18.2905   13.7130   30.2020 H         1 SUB1        0.048
      4 H192       17.6317   13.3068   31.8230 H         1 SUB1        0.048
      5 H211       15.4110   16.2066   30.8319 H         1 SUB1        0.073
      6 H221       14.8510   14.8163   28.9813 H         1 SUB1        0.032
      7 H222       16.5575   14.6652   28.4414 H         1 SUB1        0.032
      8 H301       15.0118   16.6694   33.0856 H         1 SUB1        0.065
      9 H311       13.3572   15.9106   34.7870 H         1 SUB1        0.067
     10 H331       16.3575   13.2777   36.4638 H         1 SUB1        0.067
     11 H341       18.0013   14.0673   34.7521 H         1 SUB1        0.065
     12 H361       15.0016   13.2041   38.0023 H         1 SUB1        0.189
     13 H371       12.0228   13.3733   38.4284 H         1 SUB1        0.078
     14 H381       11.5612   11.2578   38.2060 H         1 SUB1        0.036
     15 H382       12.7694   10.8633   39.4753 H         1 SUB1        0.036
     16 H391       14.4940   10.9231   37.5373 H         1 SUB1        0.049
     17 H392       13.0584   10.8045   36.4641 H         1 SUB1        0.049
     18 C1         16.0830   13.5170   30.2510 C.3       1 SUB1       -0.031
     19 C2         17.4530   13.8730   30.8970 C.3       1 SUB1        0.034
     20 N3         17.2220   15.2930   31.1590 N.am      1 SUB1       -0.217
     21 C4         16.2910   15.9270   30.2340 C.3       1 SUB1        0.080
     22 C5         15.8950   14.7310   29.3170 C.3       1 SUB1       -0.020
     23 C6         16.6250   17.1980   29.4520 C.2       1 SUB1        0.050
     24 O7         17.6970   17.4750   28.8890 O.co2     1 SUB1       -0.565
     25 O8         15.6600   18.0300   29.3840 O.co2     1 SUB1       -0.565
     26 S9         17.7180   15.9660   32.6620 S.o2      1 SUB1        0.075
     27 C10        16.5540   15.4030   33.8730 C.ar      1 SUB1        0.113
     28 O11        19.1170   15.4630   33.1360 O.2       1 SUB1       -0.149
     29 O12        17.6380   17.5550   32.6130 O.2       1 SUB1       -0.149
     30 C13        15.2840   15.9350   33.8350 C.ar      1 SUB1       -0.030
     31 C14        14.3640   15.5090   34.7770 C.ar      1 SUB1       -0.040
     32 C15        14.7610   14.5440   35.7220 C.ar      1 SUB1        0.050
     33 C16        16.0700   14.0180   35.7260 C.ar      1 SUB1       -0.040
     34 C17        16.9890   14.4540   34.7790 C.ar      1 SUB1       -0.030
     35 C18        13.6990   14.1060   36.7070 C.2       1 SUB1        0.208
     36 N19        14.0410   13.3750   37.7830 N.am      1 SUB1       -0.269
     37 C20        12.9540   12.8270   38.6390 C.3       1 SUB1        0.084
     38 C21        12.6190   11.3410   38.4960 C.3       1 SUB1       -0.007
     39 C22        13.4520   10.5780   37.4660 C.3       1 SUB1       -0.009
     40 C23        13.4310    9.0670   37.6610 C.2       1 SUB1        0.028
     41 O24        12.4990   14.1670   36.4090 O.2       1 SUB1       -0.384
     42 C25        13.4980   13.2360   40.0520 C.2       1 SUB1        0.053
     43 O26        12.6340   13.4320   40.9230 O.co2     1 SUB1       -0.564
     44 O27        14.7340   13.3430   40.1930 O.co2     1 SUB1       -0.564
     45 O28        14.0100    8.6230   38.6770 O.co2     1 SUB1       -0.567
     46 O29        12.8710    8.3290   36.8300 O.co2     1 SUB1       -0.567
@<TRIPOS>BOND
     1   18    1 1  
     2   18    2 1  
     3   19    3 1  
     4   19    4 1  
     5   21    5 1  
     6   22    6 1  
     7   22    7 1  
     8   30    8 1  
     9   31    9 1  
    10   33   10 1  
    11   34   11 1  
    12   36   12 1  
    13   37   13 1  
    14   38   14 1  
    15   38   15 1  
    16   39   16 1  
    17   39   17 1  
    18   22   18 1  
    19   19   18 1  
    20   20   19 1  
    21   26   20 am 
    22   20   21 1  
    23   21   23 1  
    24   21   22 1  
    25   23   25 2  
    26   23   24 2  
    27   26   29 2  
    28   26   28 2  
    29   27   26 1  
    30   34   27 ar 
    31   30   27 ar 
    32   31   30 ar 
    33   32   31 ar 
    34   35   32 1  
    35   32   33 ar 
    36   33   34 ar 
    37   35   41 2  
    38   36   35 am 
    39   37   36 1  
    40   37   42 1  
    41   38   37 1  
    42   38   39 1  
    43   39   40 1  
    44   40   46 2  
    45   40   45 2  
    46   42   44 2  
    47   42   43 2  
@<TRIPOS>SUBSTRUCTURE
     1 SUB1        1 GROUP

