### 
### Created by X-TOOL on Mon Oct 24 22:39:37 2005
### 

@<TRIPOS>MOLECULE
1atl_ligand
   47    47     1     0     0
SMALL
GAST_HUCK


@<TRIPOS>ATOM
      1 C1         -2.8970   23.6890   47.6030 C.2       1 SUB1        0.183
      2 O1         -2.1200   24.3840   48.2730 O.2       1 SUB1       -0.396
      3 C2         -2.9540   22.1570   47.7440 C.3       1 SUB1        0.058
      4 CH         -1.5610   21.5410   47.8970 C.3       1 SUB1        0.010
      5 S          -0.5940   21.4250   46.3610 S.3       1 SUB1       -0.176
      6 C3         -3.7880   21.7840   48.9780 C.3       1 SUB1       -0.030
      7 C4         -5.1150   22.5330   49.2110 C.3       1 SUB1       -0.044
      8 CM         -5.6870   22.1630   50.5840 C.3       1 SUB1       -0.062
      9 C5         -6.1260   22.2290   48.0990 C.3       1 SUB1       -0.062
     10 N          -3.7810   24.2020   46.7590 N.am      1 SUB1       -0.268
     11 CA         -3.9030   25.6280   46.5080 C.3       1 SUB1        0.089
     12 C          -5.1290   25.8990   45.6220 C.2       1 SUB1        0.055
     13 O          -5.6560   27.0220   45.6040 O.co2     1 SUB1       -0.564
     14 CB         -2.5980   26.1750   45.9030 C.3       1 SUB1        0.010
     15 CG         -2.0560   25.4460   44.6900 C.ar      1 SUB1       -0.048
     16 CD1        -2.6830   24.3120   44.1910 C.ar      1 SUB1       -0.068
     17 CD2        -0.9260   25.9200   44.0220 C.ar      1 SUB1       -0.068
     18 CE1        -2.2120   23.6720   43.0650 C.ar      1 SUB1       -0.040
     19 CE2        -0.4470   25.2920   42.8960 C.ar      1 SUB1       -0.040
     20 CZ         -1.0940   24.1600   42.4180 C.ar      1 SUB1        0.084
     21 OH         -0.6400   23.4970   41.2910 O.3       1 SUB1       -0.326
     22 OXT        -5.6140   24.9330   45.0030 O.co2     1 SUB1       -0.564
     23 C          -1.1700   23.2880   39.9810 C.3       1 SUB1        0.058
     24 H101       -4.3926   23.5784   46.2722 H         1 SUB1        0.190
     25 H111       -4.0647   26.1357   47.4703 H         1 SUB1        0.080
     26 H141       -1.8263   26.1398   46.6861 H         1 SUB1        0.046
     27 H142       -2.7774   27.2205   45.6118 H         1 SUB1        0.046
     28 H161       -3.5594   23.9228   44.6966 H         1 SUB1        0.053
     29 H171       -0.4162   26.7998   44.3977 H         1 SUB1        0.053
     30 H181       -2.7169   22.7895   42.6890 H         1 SUB1        0.052
     31 H191        0.4283   25.6775   42.3859 H         1 SUB1        0.052
     32 H31        -3.4293   21.7397   46.8441 H         1 SUB1        0.055
     33 H41        -1.6805   20.5251   48.3016 H         1 SUB1        0.040
     34 H42        -0.9934   22.1557   48.6110 H         1 SUB1        0.040
     35 H51         0.3025   21.0094   46.5603 H         1 SUB1        0.102
     36 H61        -3.1569   21.9549   49.8626 H         1 SUB1        0.030
     37 H62        -4.0269   20.7132   48.8993 H         1 SUB1        0.030
     38 H71        -4.9089   23.6135   49.2004 H         1 SUB1        0.030
     39 H81        -6.6333   22.7005   50.7439 H         1 SUB1        0.023
     40 H82        -4.9687   22.4439   51.3683 H         1 SUB1        0.023
     41 H83        -5.8696   21.0791   50.6252 H         1 SUB1        0.023
     42 H91        -5.6933   22.5025   47.1253 H         1 SUB1        0.023
     43 H92        -7.0439   22.8110   48.2688 H         1 SUB1        0.023
     44 H93        -6.3660   21.1555   48.1051 H         1 SUB1        0.023
     45 H231       -0.4609   22.6901   39.3897 H         1 SUB1        0.058
     46 H232       -1.3286   24.2596   39.4903 H         1 SUB1        0.058
     47 H233       -2.1285   22.7533   40.0542 H         1 SUB1        0.058
@<TRIPOS>BOND
     1    1    3 1  
     2    1    2 2  
     3    3    6 1  
     4    3    4 1  
     5    4    5 1  
     6    6    7 1  
     7    7    9 1  
     8    7    8 1  
     9   11   12 1  
    10   11   14 1  
    11   10   11 1  
    12   14   15 1  
    13   15   17 ar 
    14   15   16 ar 
    15   16   18 ar 
    16   18   20 ar 
    17   20   21 1  
    18   19   20 ar 
    19   17   19 ar 
    20   12   22 2  
    21   12   13 2  
    22    1   10 am 
    23   21   23 1  
    24   10   24 1  
    25   11   25 1  
    26   14   26 1  
    27   14   27 1  
    28   16   28 1  
    29   17   29 1  
    30   18   30 1  
    31   19   31 1  
    32    3   32 1  
    33    4   33 1  
    34    4   34 1  
    35    5   35 1  
    36    6   36 1  
    37    6   37 1  
    38    7   38 1  
    39    8   39 1  
    40    8   40 1  
    41    8   41 1  
    42    9   42 1  
    43    9   43 1  
    44    9   44 1  
    45   23   45 1  
    46   23   46 1  
    47   23   47 1  
@<TRIPOS>SUBSTRUCTURE
     1 SUB1        1 GROUP

