### 
### Created by X-TOOL on Tue Oct 25 02:02:56 2005
### 

@<TRIPOS>MOLECULE
1p19_ligand
   34    36     1     0     0
SMALL
GAST_HUCK


@<TRIPOS>ATOM
      1 P          70.3090   39.1240   36.1390 P.3       1 SUB1        0.205
      2 O1P        70.6410   40.4980   36.6280 O.co2     1 SUB1       -0.535
      3 O2P        71.0580   38.1060   36.9580 O.co2     1 SUB1       -0.535
      4 O3P        68.7850   38.8370   36.2130 O.co2     1 SUB1       -0.535
      5 UNK_5      70.7180   38.9220   34.5620 O.3       1 SUB1       -0.320
      6 UNK_6      69.9780   39.6720   33.5770 C.3       1 SUB1        0.094
      7 UNK_7      70.3860   39.5600   32.1180 C.3       1 SUB1        0.118
      8 UNK_8      70.8550   40.9170   31.8510 O.3       1 SUB1       -0.336
      9 UNK_9      71.5260   38.6750   31.6120 C.3       1 SUB1        0.115
     10 UNK_10     71.1570   37.3580   31.2900 O.3       1 SUB1       -0.386
     11 UNK_11     72.0440   39.4210   30.3970 C.3       1 SUB1        0.139
     12 UNK_12     71.2750   39.2470   29.2110 O.3       1 SUB1       -0.384
     13 UNK_13     71.9710   40.8610   30.9630 C.3       1 SUB1        0.200
     14 N9         73.1650   41.0940   31.8020 N.pl3     1 SUB1       -0.205
     15 C8         73.3820   40.9260   33.1510 C.2       1 SUB1        0.100
     16 N7         74.5870   41.2510   33.4910 N.2       1 SUB1       -0.315
     17 C5         75.1990   41.6500   32.3320 C.2       1 SUB1        0.104
     18 C6         76.5220   42.1170   32.0740 C.2       1 SUB1        0.220
     19 O6         77.4370   42.2690   32.8700 O.2       1 SUB1       -0.407
     20 N1         76.7590   42.4310   30.7160 N.am      1 SUB1       -0.204
     21 C2         75.7790   42.2890   29.7420 C.2       1 SUB1        0.127
     22 N3         74.5350   41.8470   29.9950 N.2       1 SUB1       -0.268
     23 C4         74.3260   41.5570   31.2750 C.2       1 SUB1        0.135
     24 H61        70.0541   40.7338   33.8540 H         1 SUB1        0.064
     25 H62        68.9286   39.3495   33.6455 H         1 SUB1        0.064
     26 H71        69.4886   39.3074   31.5342 H         1 SUB1        0.065
     27 H91        72.3107   38.6225   32.3810 H         1 SUB1        0.065
     28 H101       70.4989   37.3732   30.6051 H         1 SUB1        0.210
     29 H111       73.0820   39.1328   30.1747 H         1 SUB1        0.068
     30 H121       71.2575   38.3260   28.9786 H         1 SUB1        0.210
     31 H131       71.8902   41.6044   30.1562 H         1 SUB1        0.100
     32 H151       72.6289   40.5628   33.8488 H         1 SUB1        0.121
     33 H201       77.6621   42.7664   30.4478 H         1 SUB1        0.256
     34 H211       76.0327   42.5504   28.7157 H         1 SUB1        0.149
@<TRIPOS>BOND
     1    1    2 2  
     2    1    3 2  
     3    1    4 2  
     4    1    5 1  
     5    5    6 1  
     6    6    7 1  
     7    7    8 1  
     8    7    9 1  
     9    8   13 1  
    10    9   10 1  
    11    9   11 1  
    12   11   12 1  
    13   11   13 1  
    14   13   14 1  
    15   14   15 1  
    16   14   23 1  
    17   15   16 2  
    18   16   17 1  
    19   17   18 1  
    20   17   23 2  
    21   18   19 2  
    22   18   20 am 
    23   20   21 am 
    24   21   22 2  
    25   22   23 1  
    26    6   24 1  
    27    6   25 1  
    28    7   26 1  
    29    9   27 1  
    30   10   28 1  
    31   11   29 1  
    32   12   30 1  
    33   13   31 1  
    34   15   32 1  
    35   20   33 1  
    36   21   34 1  
@<TRIPOS>SUBSTRUCTURE
     1 SUB1        1 GROUP

