### 
### Created by X-TOOL on Tue Oct 25 01:46:56 2005
### 

@<TRIPOS>MOLECULE
1fpc_ligand
   74    76     1     0     0
SMALL
GAST_HUCK


@<TRIPOS>ATOM
      1 C1         17.5650  -17.0930   22.3550 C.ar      1 SUB1        0.110
      2 C2         18.3640  -17.0780   21.1800 C.ar      1 SUB1       -0.038
      3 C3         19.6660  -16.6580   21.2390 C.ar      1 SUB1       -0.062
      4 C4         20.2110  -16.2220   22.4590 C.ar      1 SUB1       -0.055
      5 C4A        19.4500  -16.2300   23.6240 C.ar      1 SUB1        0.006
      6 C5         19.9740  -15.8220   24.8170 C.ar      1 SUB1        0.042
      7 C6         19.2000  -15.7920   25.9650 C.ar      1 SUB1       -0.049
      8 C7         17.8740  -16.2710   25.8910 C.ar      1 SUB1       -0.079
      9 C8         17.3140  -16.6790   24.6970 C.ar      1 SUB1       -0.070
     10 C8A        18.0840  -16.6810   23.5630 C.ar      1 SUB1       -0.003
     11 N          21.2910  -15.3480   24.8670 N.3       1 SUB1       -0.253
     12 CM1        21.6710  -13.9230   24.9480 C.3       1 SUB1        0.009
     13 CM2        22.2730  -16.2210   25.8110 C.3       1 SUB1        0.009
     14 S          15.7800  -17.6380   22.1970 S.o2      1 SUB1        0.069
     15 O1S        15.6560  -18.0790   20.7840 O.2       1 SUB1       -0.151
     16 O2S        15.0610  -18.5890   23.1260 O.2       1 SUB1       -0.151
     17 N          14.6980  -16.2450   22.3190 N.am      1 SUB1       -0.226
     18 CA         14.7870  -15.1650   21.3470 C.3       1 SUB1        0.126
     19 C          15.8750  -14.1850   21.7940 C.2       1 SUB1        0.200
     20 O          16.1180  -13.9270   22.9870 O.2       1 SUB1       -0.395
     21 CB         13.4540  -14.4560   21.2730 C.3       1 SUB1       -0.014
     22 CG         11.9190  -14.5210   21.3030 C.3       1 SUB1       -0.030
     23 CD         11.4410  -13.1890   21.2000 C.3       1 SUB1        0.051
     24 NE         10.9800  -12.7740   22.5580 N.pl3     1 SUB1       -0.170
     25 CZ         11.1730  -11.7290   23.3130 C.cat     1 SUB1        0.387
     26 NH1        11.8990  -10.7000   22.7900 N.pl3     1 SUB1       -0.183
     27 NH2        10.6820  -11.7010   24.4910 N.pl3     1 SUB1       -0.183
     28 N1         16.8870  -13.8810   20.8120 N.am      1 SUB1       -0.272
     29 C2         17.8720  -12.8090   21.3660 C.3       1 SUB1        0.034
     30 C3         19.1770  -12.8640   20.5860 C.3       1 SUB1       -0.030
     31 C4         18.8650  -12.9240   19.0080 C.3       1 SUB1       -0.038
     32 C5         17.7980  -14.0640   18.5390 C.3       1 SUB1       -0.030
     33 C6         16.4600  -13.9480   19.3070 C.3       1 SUB1        0.034
     34 C1'        20.1770  -13.1700   18.4840 C.3       1 SUB1       -0.053
     35 C2'        20.3190  -13.0360   16.9390 C.3       1 SUB1       -0.065
     36 H171       14.0242  -16.1990   23.0565 H         1 SUB1        0.170
     37 H181       15.0421  -15.5741   20.3583 H         1 SUB1        0.075
     38 H211       13.5820  -13.9586   20.3003 H         1 SUB1        0.031
     39 H212       13.6071  -13.7257   22.0812 H         1 SUB1        0.031
     40 H221       11.5791  -14.9714   22.2472 H         1 SUB1        0.028
     41 H222       11.5505  -15.1202   20.4574 H         1 SUB1        0.028
     42 H231       10.6033  -13.1441   20.4886 H         1 SUB1        0.050
     43 H232       12.2485  -12.5251   20.8578 H         1 SUB1        0.050
     44 H241       10.3685  -13.4750   23.0003 H         1 SUB1        0.198
     45 H261       12.2714  -10.7672   21.8320 H         1 SUB1        0.194
     46 H262       12.0749   -9.8556   23.3529 H         1 SUB1        0.194
     47 H271       10.1364  -12.5016   24.8407 H         1 SUB1        0.194
     48 H272       10.8314  -10.8778   25.0918 H         1 SUB1        0.194
     49 H21        17.9419  -17.3998   20.2348 H         1 SUB1        0.063
     50 H31        20.2771  -16.6618   20.3437 H         1 SUB1        0.059
     51 H41        21.2374  -15.8750   22.4928 H         1 SUB1        0.063
     52 H71        19.6020  -15.4105   26.8966 H         1 SUB1        0.046
     53 H81        17.2796  -16.3197   26.7962 H         1 SUB1        0.057
     54 H91        16.2776  -16.9941   24.6567 H         1 SUB1        0.047
     55 H121       22.7673  -13.8368   24.9737 H         1 SUB1        0.045
     56 H122       21.2470  -13.4818   25.8621 H         1 SUB1        0.045
     57 H123       21.2818  -13.3891   24.0685 H         1 SUB1        0.045
     58 H131       21.9907  -17.2825   25.7513 H         1 SUB1        0.045
     59 H132       22.1837  -15.8758   26.8516 H         1 SUB1        0.045
     60 H133       23.3122  -16.0983   25.4719 H         1 SUB1        0.045
     61 H291       18.0720  -13.0100   22.4288 H         1 SUB1        0.052
     62 H292       17.4238  -11.8101   21.2597 H         1 SUB1        0.052
     63 H301       19.7417  -13.7606   20.8812 H         1 SUB1        0.029
     64 H302       19.7729  -11.9661   20.8068 H         1 SUB1        0.029
     65 H311       18.4864  -11.9499   18.6649 H         1 SUB1        0.030
     66 H321       18.2319  -15.0571   18.7274 H         1 SUB1        0.029
     67 H322       17.6022  -13.9475   17.4629 H         1 SUB1        0.029
     68 H331       15.9194  -13.0360   19.0136 H         1 SUB1        0.052
     69 H332       15.8253  -14.8267   19.1201 H         1 SUB1        0.052
     70 H341       20.4668  -14.1938   18.7632 H         1 SUB1        0.026
     71 H342       20.8682  -12.4530   18.9510 H         1 SUB1        0.026
     72 H351       21.3589  -13.2443   16.6470 H         1 SUB1        0.023
     73 H352       20.0500  -12.0142   16.6333 H         1 SUB1        0.023
     74 H353       19.6486  -13.7549   16.4454 H         1 SUB1        0.023
@<TRIPOS>BOND
     1   14    1 1  
     2    1   10 ar 
     3    1    2 ar 
     4    2    3 ar 
     5    3    4 ar 
     6    5    4 ar 
     7   10    5 ar 
     8    5    6 ar 
     9    6   11 1  
    10    6    7 ar 
    11    8    7 ar 
    12    9    8 ar 
    13   10    9 ar 
    14   11   13 1  
    15   11   12 1  
    16   14   16 2  
    17   14   15 2  
    18   19   18 1  
    19   18   21 1  
    20   18   17 1  
    21   21   22 1  
    22   22   23 1  
    23   23   24 1  
    24   24   25 1  
    25   25   26 1  
    26   25   27 1  
    27   19   20 2  
    28   28   33 1  
    29   28   29 1  
    30   29   30 1  
    31   30   31 1  
    32   31   34 1  
    33   32   31 1  
    34   33   32 1  
    35   34   35 1  
    36   17   14 1  
    37   19   28 am 
    38   17   36 1  
    39   18   37 1  
    40   21   38 1  
    41   21   39 1  
    42   22   40 1  
    43   22   41 1  
    44   23   42 1  
    45   23   43 1  
    46   24   44 1  
    47   26   45 1  
    48   26   46 1  
    49   27   47 1  
    50   27   48 1  
    51    2   49 1  
    52    3   50 1  
    53    4   51 1  
    54    7   52 1  
    55    8   53 1  
    56    9   54 1  
    57   12   55 1  
    58   12   56 1  
    59   12   57 1  
    60   13   58 1  
    61   13   59 1  
    62   13   60 1  
    63   29   61 1  
    64   29   62 1  
    65   30   63 1  
    66   30   64 1  
    67   31   65 1  
    68   32   66 1  
    69   32   67 1  
    70   33   68 1  
    71   33   69 1  
    72   34   70 1  
    73   34   71 1  
    74   35   72 1  
    75   35   73 1  
    76   35   74 1  
@<TRIPOS>SUBSTRUCTURE
     1 SUB1        1 GROUP

