### 
### Created by X-TOOL on Tue Oct 25 00:28:42 2005
### 

@<TRIPOS>MOLECULE
1bn1_ligand
   35    36     1     0     0
SMALL
GAST_HUCK


@<TRIPOS>ATOM
      1 H41        -1.6974    5.3835   13.6618 H         1 SUB1        0.062
      2 H42        -2.8211    5.7326   15.0191 H         1 SUB1        0.062
      3 C3         -5.2620    1.9170   15.8680 C.2       1 SUB1        0.162
      4 C9         -2.5330    6.0160   13.9960 C.3       1 SUB1        0.057
      5 C10        -2.0730    7.4580   14.0060 C.ar      1 SUB1       -0.031
      6 C11        -2.0590    8.2370   12.8360 C.ar      1 SUB1       -0.065
      7 C12        -1.6300    9.5640   12.8920 C.ar      1 SUB1       -0.067
      8 C13        -1.2090   10.1180   14.1120 C.ar      1 SUB1       -0.053
      9 C14        -1.2240    9.3400   15.2660 C.ar      1 SUB1       -0.067
     10 C15        -1.6550    8.0180   15.2120 C.ar      1 SUB1       -0.065
     11 C16        -0.7060   11.5750   14.2040 C.3       1 SUB1       -0.034
     12 O2A        -7.3420    0.8980   16.8160 O.2       1 SUB1       -0.150
     13 O1A        -5.4520    0.8900   18.2090 O.2       1 SUB1       -0.150
     14 N21        -5.4260   -0.6700   16.2410 N.am      1 SUB1       -0.261
     15 S1         -5.9230    0.6800   16.8870 S.o2      1 SUB1        0.075
     16 C4         -3.9450    1.9180   15.4540 C.2       1 SUB1       -0.050
     17 C5         -3.6630    3.0440   14.7110 C.2       1 SUB1       -0.050
     18 C6         -4.7720    3.8640   14.5850 C.2       1 SUB1        0.162
     19 S2         -6.1860    3.2900   15.3520 S.3       1 SUB1        0.011
     20 S7         -4.9240    5.4130   13.8250 S.o2      1 SUB1        0.078
     21 O3B        -6.0860    5.4170   12.9990 O.2       1 SUB1       -0.150
     22 O4B        -5.2530    6.3320   14.8660 O.2       1 SUB1       -0.150
     23 N8         -3.6740    5.7880   13.1100 N.am      1 SUB1       -0.237
     24 H61        -2.3803    7.8086   11.8935 H         1 SUB1        0.054
     25 H71        -1.6217   10.1682   11.9921 H         1 SUB1        0.054
     26 H91        -0.8992    9.7648   16.2089 H         1 SUB1        0.054
     27 H101       -1.6658    7.4188   16.1153 H         1 SUB1        0.054
     28 H111       -0.7594   12.0447   13.2108 H         1 SUB1        0.038
     29 H112        0.3357   11.5817   14.5571 H         1 SUB1        0.038
     30 H113       -1.3360   12.1366   14.9095 H         1 SUB1        0.038
     31 H141       -5.6819   -1.5519   16.6567 H         1 SUB1        0.163
     32 H161       -3.2251    1.1338   15.6838 H         1 SUB1        0.042
     33 H171       -2.6885    3.2620   14.2766 H         1 SUB1        0.042
     34 H231       -3.6192    5.8760   12.1154 H         1 SUB1        0.170
     35 H142       -4.8569   -0.6512   15.4189 H         1 SUB1        0.163
@<TRIPOS>BOND
     1    3   19 1  
     2    3   16 2  
     3    3   15 1  
     4   15   12 2  
     5   15   13 2  
     6   15   14 1  
     7   16   17 1  
     8   17   18 2  
     9   18   20 1  
    10   18   19 1  
    11   20   23 1  
    12   20   22 2  
    13   20   21 2  
    14   23    4 1  
    15    4    5 1  
    16    5   10 ar 
    17    5    6 ar 
    18    6    7 ar 
    19    7    8 ar 
    20    8   11 1  
    21    8    9 ar 
    22    9   10 ar 
    23    4    1 1  
    24    4    2 1  
    25    6   24 1  
    26    7   25 1  
    27    9   26 1  
    28   10   27 1  
    29   11   28 1  
    30   11   29 1  
    31   11   30 1  
    32   14   31 1  
    33   16   32 1  
    34   17   33 1  
    35   23   34 1  
    36   14   35 1  
@<TRIPOS>SUBSTRUCTURE
     1 SUB1        1 GROUP

