1bn1_ligand
  -I-interpret- 

 35 36  0  0  0  0  0  0  0  0999 V2000
   -1.6974    5.3835   13.6618 H   0  0  0  0  0
   -2.8211    5.7326   15.0191 H   0  0  0  0  0
   -5.2620    1.9170   15.8680 C   0  0  0  0  0
   -2.5330    6.0160   13.9960 C   0  0  0  0  0
   -2.0730    7.4580   14.0060 C   0  0  0  0  0
   -2.0590    8.2370   12.8360 C   0  0  0  0  0
   -1.6300    9.5640   12.8920 C   0  0  0  0  0
   -1.2090   10.1180   14.1120 C   0  0  0  0  0
   -1.2240    9.3400   15.2660 C   0  0  0  0  0
   -1.6550    8.0180   15.2120 C   0  0  0  0  0
   -0.7060   11.5750   14.2040 C   0  0  0  0  0
   -7.3420    0.8980   16.8160 O   0  0  0  0  0
   -5.4520    0.8900   18.2090 O   0  0  0  0  0
   -5.4260   -0.6700   16.2410 N   0  0  0  0  0
   -5.9230    0.6800   16.8870 S   0  0  0  0  0
   -3.9450    1.9180   15.4540 C   0  0  0  0  0
   -3.6630    3.0440   14.7110 C   0  0  0  0  0
   -4.7720    3.8640   14.5850 C   0  0  0  0  0
   -6.1860    3.2900   15.3520 S   0  0  0  0  0
   -4.9240    5.4130   13.8250 S   0  0  0  0  0
   -6.0860    5.4170   12.9990 O   0  0  0  0  0
   -5.2530    6.3320   14.8660 O   0  0  0  0  0
   -3.6740    5.7880   13.1100 N   0  0  0  0  0
   -2.3803    7.8086   11.8935 H   0  0  0  0  0
   -1.6217   10.1682   11.9921 H   0  0  0  0  0
   -0.8992    9.7648   16.2089 H   0  0  0  0  0
   -1.6658    7.4188   16.1153 H   0  0  0  0  0
   -0.7594   12.0447   13.2108 H   0  0  0  0  0
    0.3357   11.5817   14.5571 H   0  0  0  0  0
   -1.3360   12.1366   14.9095 H   0  0  0  0  0
   -5.6819   -1.5519   16.6567 H   0  0  0  0  0
   -3.2251    1.1338   15.6838 H   0  0  0  0  0
   -2.6885    3.2620   14.2766 H   0  0  0  0  0
   -3.6192    5.8760   12.1154 H   0  0  0  0  0
   -4.8569   -0.6512   15.4189 H   0  0  0  0  0
  3 19  1  0  0  0
  3 16  2  0  0  0
  3 15  1  0  0  0
 15 12  2  0  0  0
 15 13  2  0  0  0
 15 14  1  0  0  0
 16 17  1  0  0  0
 17 18  2  0  0  0
 18 20  1  0  0  0
 18 19  1  0  0  0
 20 23  1  0  0  0
 20 22  2  0  0  0
 20 21  2  0  0  0
 23  4  1  0  0  0
  4  5  1  0  0  0
  5 10  4  0  0  0
  5  6  4  0  0  0
  6  7  4  0  0  0
  7  8  4  0  0  0
  8 11  1  0  0  0
  8  9  4  0  0  0
  9 10  4  0  0  0
  4  1  1  0  0  0
  4  2  1  0  0  0
  6 24  1  0  0  0
  7 25  1  0  0  0
  9 26  1  0  0  0
 10 27  1  0  0  0
 11 28  1  0  0  0
 11 29  1  0  0  0
 11 30  1  0  0  0
 14 31  1  0  0  0
 16 32  1  0  0  0
 17 33  1  0  0  0
 23 34  1  0  0  0
 14 35  1  0  0  0
M  END
$$$$
