### 
### Created by X-TOOL on Mon Oct 24 22:39:20 2005
### 

@<TRIPOS>MOLECULE
1hvl_ligand
  116   119     1     0     0
SMALL
GAST_HUCK


@<TRIPOS>ATOM
      1 H411        3.6513   -0.2747   15.7577 H         1 SUB1        0.064
      2 H421        5.6295   -3.0716   17.1811 H         1 SUB1        0.186
      3 H431        4.3651   -2.3495   14.5769 H         1 SUB1        0.060
      4 H441        2.2259   -2.2828   15.7227 H         1 SUB1        0.045
      5 H442        3.0132   -2.6464   17.2958 H         1 SUB1        0.045
      6 H461        2.1828   -4.0334   13.9304 H         1 SUB1        0.056
      7 H471        1.8869   -6.4651   13.5121 H         1 SUB1        0.060
      8 H481        2.4183   -8.1065   15.2924 H         1 SUB1        0.056
      9 H491        3.2152   -7.3289   17.5052 H         1 SUB1        0.060
     10 H501        3.5100   -4.9083   17.9407 H         1 SUB1        0.056
     11 C1          3.3750    3.2130   10.8020 C.2       1 SUB1        0.264
     12 O2          3.0890    3.9150   11.7510 O.2       1 SUB1       -0.400
     13 N3          3.9220    3.7490    9.7000 N.am      1 SUB1       -0.249
     14 C4          4.2730    2.9460    8.5250 C.3       1 SUB1        0.025
     15 C5          4.2610    5.1730    9.7270 C.3       1 SUB1        0.083
     16 C6          5.7350    5.4640    9.9150 C.ar      1 SUB1        0.050
     17 C7          6.5140    5.7190    8.7930 C.ar      1 SUB1       -0.030
     18 N8          6.2050    5.5480   11.1550 N.ar      1 SUB1       -0.296
     19 C9          7.8330    6.1030    9.0050 C.ar      1 SUB1       -0.049
     20 C10         7.4610    5.9250   11.3580 C.ar      1 SUB1        0.003
     21 C11         8.3160    6.2230   10.3100 C.ar      1 SUB1       -0.041
     22 N21         3.1630    1.8950   10.8040 N.am      1 SUB1       -0.251
     23 C22         2.7340    1.1600   12.0220 C.3       1 SUB1        0.133
     24 C23         3.8430    0.1720   12.4740 C.2       1 SUB1        0.202
     25 O24         3.9350   -0.9490   12.0140 O.2       1 SUB1       -0.394
     26 C25         1.3530    0.4590   11.8050 C.3       1 SUB1       -0.007
     27 C26         0.2590    1.4370   11.3390 C.3       1 SUB1       -0.058
     28 C27         0.8540   -0.3020   13.0350 C.3       1 SUB1       -0.058
     29 N37         4.6950    0.6400   13.4020 N.am      1 SUB1       -0.278
     30 C38         5.8630   -0.0780   13.9970 C.3       1 SUB1        0.080
     31 C39         7.1800    0.6630   13.7410 C.3       1 SUB1        0.007
     32 C40         7.4770    0.8150   12.3010 C.ar      1 SUB1       -0.041
     33 C41         7.9520   -0.2810   11.5950 C.ar      1 SUB1       -0.060
     34 C42         8.2170   -0.1470   10.2500 C.ar      1 SUB1       -0.069
     35 C43         8.0000    1.0750    9.6070 C.ar      1 SUB1       -0.069
     36 C44         7.5430    2.1680   10.3260 C.ar      1 SUB1       -0.069
     37 C45         7.2770    2.0430   11.6780 C.ar      1 SUB1       -0.060
     38 C46         5.7690   -0.1850   15.5040 C.3       1 SUB1        0.108
     39 O47         5.7570    1.1590   15.9770 O.3       1 SUB1       -0.387
     40 O48         4.6810   -0.7540   17.5020 O.3       1 SUB1       -0.387
     41 C49         4.5410   -0.8350   16.0810 C.3       1 SUB1        0.108
     42 N50         5.4660   -3.1000   16.1950 N.am      1 SUB1       -0.278
     43 C51         4.3690   -2.2860   15.6750 C.3       1 SUB1        0.080
     44 C52         3.0490   -2.8250   16.2110 C.3       1 SUB1        0.007
     45 C53         2.8640   -4.3070   15.9610 C.ar      1 SUB1       -0.041
     46 C54         2.4080   -4.7500   14.7120 C.ar      1 SUB1       -0.060
     47 C55         2.2440   -6.1210   14.4760 C.ar      1 SUB1       -0.069
     48 C56         2.5400   -7.0460   15.4810 C.ar      1 SUB1       -0.069
     49 C57         2.9920   -6.6080   16.7270 C.ar      1 SUB1       -0.069
     50 C58         3.1570   -5.2460   16.9730 C.ar      1 SUB1       -0.060
     51 N81         6.9480   -5.9900   16.6460 N.am      1 SUB1       -0.251
     52 C82         7.3610   -4.6320   16.2660 C.3       1 SUB1        0.133
     53 C83         6.2680   -3.8780   15.4650 C.2       1 SUB1        0.202
     54 O84         6.1760   -3.9420   14.2590 O.2       1 SUB1       -0.394
     55 C85         8.7110   -4.6080   15.5100 C.3       1 SUB1       -0.007
     56 C86         9.7690   -5.4340   16.2350 C.3       1 SUB1       -0.058
     57 C87         9.2260   -3.1700   15.3470 C.3       1 SUB1       -0.058
     58 C97         6.7970   -6.4050   17.9020 C.2       1 SUB1        0.264
     59 O98         7.0870   -5.7120   18.8680 O.2       1 SUB1       -0.400
     60 N99         6.3110   -7.6600   18.0560 N.am      1 SUB1       -0.249
     61 C2          5.8910   -8.5060   16.9340 C.3       1 SUB1        0.025
     62 C3          6.0950   -8.1580   19.4230 C.3       1 SUB1        0.083
     63 C8          4.7000   -7.8490   19.9180 C.ar      1 SUB1        0.050
     64 C12         3.6630   -8.7550   19.6540 C.ar      1 SUB1       -0.030
     65 N10         4.5240   -6.6940   20.5770 N.ar      1 SUB1       -0.296
     66 C13         2.3780   -8.4410   20.0920 C.ar      1 SUB1       -0.049
     67 C14         3.2800   -6.3950   20.9820 C.ar      1 SUB1        0.003
     68 C15         2.1790   -7.2340   20.7650 C.ar      1 SUB1       -0.041
     69 H611        5.2030   -7.9810   16.2760 H         1 SUB1        0.049
     70 H612        6.7580   -8.8090   16.3490 H         1 SUB1        0.049
     71 H613        5.3920   -9.4110   17.2840 H         1 SUB1        0.049
     72 H621        6.2700   -9.2350   19.4580 H         1 SUB1        0.071
     73 H622        6.8080   -7.7210   20.1220 H         1 SUB1        0.071
     74 H641        3.8590   -9.6590   19.0950 H         1 SUB1        0.065
     75 H661        1.5370   -9.1050   19.8940 H         1 SUB1        0.072
     76 H671        3.1190   -5.4490   21.4880 H         1 SUB1        0.080
     77 H681        1.1930   -6.9410   21.1080 H         1 SUB1        0.065
     78 H141        3.3770    2.5570    8.0420 H         1 SUB1        0.049
     79 H142        4.9150    2.1080    8.8020 H         1 SUB1        0.049
     80 H143        4.8180    3.5380    7.7890 H         1 SUB1        0.049
     81 H151        3.7400    5.7050   10.5220 H         1 SUB1        0.071
     82 H152        3.9060    5.6370    8.8070 H         1 SUB1        0.071
     83 H171        6.1040    5.6020    7.8000 H         1 SUB1        0.065
     84 H191        8.4970    6.3020    8.1630 H         1 SUB1        0.072
     85 H201        7.8370    5.9920   12.3740 H         1 SUB1        0.080
     86 H211        9.3390    6.5160   10.5100 H         1 SUB1        0.065
     87 H221        3.3390    1.4100    9.9450 H         1 SUB1        0.188
     88 H231        2.5980    1.8610   12.8450 H         1 SUB1        0.080
     89 H261        1.4910   -0.2670   11.0010 H         1 SUB1        0.034
     90 H271       -0.6750    0.9090   11.1460 H         1 SUB1        0.023
     91 H272        0.5470    1.9430   10.4150 H         1 SUB1        0.023
     92 H273        0.0690    2.2010   12.0970 H         1 SUB1        0.023
     93 H281        0.6340    0.3850   13.8530 H         1 SUB1        0.023
     94 H282        1.5840   -1.0280   13.3960 H         1 SUB1        0.023
     95 H283       -0.0650   -0.8460   12.8080 H         1 SUB1        0.023
     96 H291        4.5800    1.6050   13.6160 H         1 SUB1        0.186
     97 H301        5.9400   -1.0710   13.5490 H         1 SUB1        0.060
     98 H311        8.0090    0.1240   14.2090 H         1 SUB1        0.045
     99 H312        7.2360    1.6560   14.1870 H         1 SUB1        0.045
    100 H331        8.1040   -1.2210   12.1100 H         1 SUB1        0.056
    101 H341        8.5880   -0.9920    9.6870 H         1 SUB1        0.060
    102 H351        8.1900    1.1690    8.5470 H         1 SUB1        0.056
    103 H361        7.3870    3.1130    9.8300 H         1 SUB1        0.060
    104 H371        6.9050    2.8890   12.2470 H         1 SUB1        0.056
    105 H381        6.6580   -0.7030   15.8760 H         1 SUB1        0.064
    106 H391        5.6985    1.1593   16.9295 H         1 SUB1        0.210
    107 H401        4.7896    0.1618   17.7592 H         1 SUB1        0.210
    108 H511        6.7440   -6.6660   15.9410 H         1 SUB1        0.188
    109 H521        7.5130   -4.0480   17.1760 H         1 SUB1        0.080
    110 H551        8.5650   -5.0410   14.5190 H         1 SUB1        0.034
    111 H561        9.4830   -6.4870   16.2950 H         1 SUB1        0.023
    112 H562        9.9270   -5.0680   17.2520 H         1 SUB1        0.023
    113 H563       10.7220   -5.3880   15.7070 H         1 SUB1        0.023
    114 H571       10.1540   -3.1620   14.7720 H         1 SUB1        0.023
    115 H572        9.4360   -2.7190   16.3190 H         1 SUB1        0.023
    116 H573        8.5100   -2.5270   14.8320 H         1 SUB1        0.023
@<TRIPOS>BOND
     1   41    1 1  
     2   42    2 1  
     3   43    3 1  
     4   44    4 1  
     5   44    5 1  
     6   46    6 1  
     7   47    7 1  
     8   48    8 1  
     9   49    9 1  
    10   50   10 1  
    11   11   12 2  
    12   11   13 am 
    13   22   11 am 
    14   13   14 1  
    15   13   15 1  
    16   14   78 1  
    17   14   79 1  
    18   14   80 1  
    19   15   16 1  
    20   15   81 1  
    21   15   82 1  
    22   16   17 ar 
    23   16   18 ar 
    24   17   19 ar 
    25   17   83 1  
    26   18   20 ar 
    27   19   21 ar 
    28   19   84 1  
    29   20   21 ar 
    30   20   85 1  
    31   21   86 1  
    32   23   22 1  
    33   22   87 1  
    34   24   23 1  
    35   23   26 1  
    36   23   88 1  
    37   24   25 2  
    38   29   24 am 
    39   26   27 1  
    40   26   28 1  
    41   26   89 1  
    42   27   90 1  
    43   27   91 1  
    44   27   92 1  
    45   28   93 1  
    46   28   94 1  
    47   28   95 1  
    48   30   29 1  
    49   29   96 1  
    50   30   31 1  
    51   38   30 1  
    52   30   97 1  
    53   31   32 1  
    54   31   98 1  
    55   31   99 1  
    56   32   33 ar 
    57   32   37 ar 
    58   33   34 ar 
    59   33  100 1  
    60   34   35 ar 
    61   34  101 1  
    62   36   35 ar 
    63   35  102 1  
    64   37   36 ar 
    65   36  103 1  
    66   37  104 1  
    67   38   39 1  
    68   41   38 1  
    69   38  105 1  
    70   39  106 1  
    71   41   43 1  
    72   43   44 1  
    73   44   45 1  
    74   45   46 ar 
    75   45   50 ar 
    76   46   47 ar 
    77   47   48 ar 
    78   49   48 ar 
    79   50   49 ar 
    80   52   51 1  
    81   51   58 am 
    82   53   52 1  
    83   52   55 1  
    84   53   54 2  
    85   55   56 1  
    86   55   57 1  
    87   58   59 2  
    88   58   60 am 
    89   60   61 1  
    90   61   69 1  
    91   61   70 1  
    92   61   71 1  
    93   60   62 1  
    94   62   63 1  
    95   62   72 1  
    96   62   73 1  
    97   63   64 ar 
    98   63   65 ar 
    99   64   66 ar 
   100   64   74 1  
   101   65   67 ar 
   102   66   68 ar 
   103   66   75 1  
   104   67   68 ar 
   105   67   76 1  
   106   68   77 1  
   107   57  116 1  
   108   57  115 1  
   109   57  114 1  
   110   56  113 1  
   111   56  112 1  
   112   56  111 1  
   113   55  110 1  
   114   52  109 1  
   115   51  108 1  
   116   40  107 1  
   117   42   53 am 
   118   43   42 1  
   119   41   40 1  
@<TRIPOS>SUBSTRUCTURE
     1 SUB1        1 GROUP

