1hvl_ligand
  -I-interpret- 

116119  0  0  0  0  0  0  0  0999 V2000
    3.6513   -0.2747   15.7577 H   0  0  0  0  0
    5.6295   -3.0716   17.1811 H   0  0  0  0  0
    4.3651   -2.3495   14.5769 H   0  0  0  0  0
    2.2259   -2.2828   15.7227 H   0  0  0  0  0
    3.0132   -2.6464   17.2958 H   0  0  0  0  0
    2.1828   -4.0334   13.9304 H   0  0  0  0  0
    1.8869   -6.4651   13.5121 H   0  0  0  0  0
    2.4183   -8.1065   15.2924 H   0  0  0  0  0
    3.2152   -7.3289   17.5052 H   0  0  0  0  0
    3.5100   -4.9083   17.9407 H   0  0  0  0  0
    3.3750    3.2130   10.8020 C   0  0  0  0  0
    3.0890    3.9150   11.7510 O   0  0  0  0  0
    3.9220    3.7490    9.7000 N   0  0  0  0  0
    4.2730    2.9460    8.5250 C   0  0  0  0  0
    4.2610    5.1730    9.7270 C   0  0  0  0  0
    5.7350    5.4640    9.9150 C   0  0  0  0  0
    6.5140    5.7190    8.7930 C   0  0  0  0  0
    6.2050    5.5480   11.1550 N   0  0  0  0  0
    7.8330    6.1030    9.0050 C   0  0  0  0  0
    7.4610    5.9250   11.3580 C   0  0  0  0  0
    8.3160    6.2230   10.3100 C   0  0  0  0  0
    3.1630    1.8950   10.8040 N   0  0  0  0  0
    2.7340    1.1600   12.0220 C   0  0  0  0  0
    3.8430    0.1720   12.4740 C   0  0  0  0  0
    3.9350   -0.9490   12.0140 O   0  0  0  0  0
    1.3530    0.4590   11.8050 C   0  0  0  0  0
    0.2590    1.4370   11.3390 C   0  0  0  0  0
    0.8540   -0.3020   13.0350 C   0  0  0  0  0
    4.6950    0.6400   13.4020 N   0  0  0  0  0
    5.8630   -0.0780   13.9970 C   0  0  0  0  0
    7.1800    0.6630   13.7410 C   0  0  0  0  0
    7.4770    0.8150   12.3010 C   0  0  0  0  0
    7.9520   -0.2810   11.5950 C   0  0  0  0  0
    8.2170   -0.1470   10.2500 C   0  0  0  0  0
    8.0000    1.0750    9.6070 C   0  0  0  0  0
    7.5430    2.1680   10.3260 C   0  0  0  0  0
    7.2770    2.0430   11.6780 C   0  0  0  0  0
    5.7690   -0.1850   15.5040 C   0  0  0  0  0
    5.7570    1.1590   15.9770 O   0  0  0  0  0
    4.6810   -0.7540   17.5020 O   0  0  0  0  0
    4.5410   -0.8350   16.0810 C   0  0  0  0  0
    5.4660   -3.1000   16.1950 N   0  0  0  0  0
    4.3690   -2.2860   15.6750 C   0  0  0  0  0
    3.0490   -2.8250   16.2110 C   0  0  0  0  0
    2.8640   -4.3070   15.9610 C   0  0  0  0  0
    2.4080   -4.7500   14.7120 C   0  0  0  0  0
    2.2440   -6.1210   14.4760 C   0  0  0  0  0
    2.5400   -7.0460   15.4810 C   0  0  0  0  0
    2.9920   -6.6080   16.7270 C   0  0  0  0  0
    3.1570   -5.2460   16.9730 C   0  0  0  0  0
    6.9480   -5.9900   16.6460 N   0  0  0  0  0
    7.3610   -4.6320   16.2660 C   0  0  0  0  0
    6.2680   -3.8780   15.4650 C   0  0  0  0  0
    6.1760   -3.9420   14.2590 O   0  0  0  0  0
    8.7110   -4.6080   15.5100 C   0  0  0  0  0
    9.7690   -5.4340   16.2350 C   0  0  0  0  0
    9.2260   -3.1700   15.3470 C   0  0  0  0  0
    6.7970   -6.4050   17.9020 C   0  0  0  0  0
    7.0870   -5.7120   18.8680 O   0  0  0  0  0
    6.3110   -7.6600   18.0560 N   0  0  0  0  0
    5.8910   -8.5060   16.9340 C   0  0  0  0  0
    6.0950   -8.1580   19.4230 C   0  0  0  0  0
    4.7000   -7.8490   19.9180 C   0  0  0  0  0
    3.6630   -8.7550   19.6540 C   0  0  0  0  0
    4.5240   -6.6940   20.5770 N   0  0  0  0  0
    2.3780   -8.4410   20.0920 C   0  0  0  0  0
    3.2800   -6.3950   20.9820 C   0  0  0  0  0
    2.1790   -7.2340   20.7650 C   0  0  0  0  0
    5.2030   -7.9810   16.2760 H   0  0  0  0  0
    6.7580   -8.8090   16.3490 H   0  0  0  0  0
    5.3920   -9.4110   17.2840 H   0  0  0  0  0
    6.2700   -9.2350   19.4580 H   0  0  0  0  0
    6.8080   -7.7210   20.1220 H   0  0  0  0  0
    3.8590   -9.6590   19.0950 H   0  0  0  0  0
    1.5370   -9.1050   19.8940 H   0  0  0  0  0
    3.1190   -5.4490   21.4880 H   0  0  0  0  0
    1.1930   -6.9410   21.1080 H   0  0  0  0  0
    3.3770    2.5570    8.0420 H   0  0  0  0  0
    4.9150    2.1080    8.8020 H   0  0  0  0  0
    4.8180    3.5380    7.7890 H   0  0  0  0  0
    3.7400    5.7050   10.5220 H   0  0  0  0  0
    3.9060    5.6370    8.8070 H   0  0  0  0  0
    6.1040    5.6020    7.8000 H   0  0  0  0  0
    8.4970    6.3020    8.1630 H   0  0  0  0  0
    7.8370    5.9920   12.3740 H   0  0  0  0  0
    9.3390    6.5160   10.5100 H   0  0  0  0  0
    3.3390    1.4100    9.9450 H   0  0  0  0  0
    2.5980    1.8610   12.8450 H   0  0  0  0  0
    1.4910   -0.2670   11.0010 H   0  0  0  0  0
   -0.6750    0.9090   11.1460 H   0  0  0  0  0
    0.5470    1.9430   10.4150 H   0  0  0  0  0
    0.0690    2.2010   12.0970 H   0  0  0  0  0
    0.6340    0.3850   13.8530 H   0  0  0  0  0
    1.5840   -1.0280   13.3960 H   0  0  0  0  0
   -0.0650   -0.8460   12.8080 H   0  0  0  0  0
    4.5800    1.6050   13.6160 H   0  0  0  0  0
    5.9400   -1.0710   13.5490 H   0  0  0  0  0
    8.0090    0.1240   14.2090 H   0  0  0  0  0
    7.2360    1.6560   14.1870 H   0  0  0  0  0
    8.1040   -1.2210   12.1100 H   0  0  0  0  0
    8.5880   -0.9920    9.6870 H   0  0  0  0  0
    8.1900    1.1690    8.5470 H   0  0  0  0  0
    7.3870    3.1130    9.8300 H   0  0  0  0  0
    6.9050    2.8890   12.2470 H   0  0  0  0  0
    6.6580   -0.7030   15.8760 H   0  0  0  0  0
    5.6985    1.1593   16.9295 H   0  0  0  0  0
    4.7896    0.1618   17.7592 H   0  0  0  0  0
    6.7440   -6.6660   15.9410 H   0  0  0  0  0
    7.5130   -4.0480   17.1760 H   0  0  0  0  0
    8.5650   -5.0410   14.5190 H   0  0  0  0  0
    9.4830   -6.4870   16.2950 H   0  0  0  0  0
    9.9270   -5.0680   17.2520 H   0  0  0  0  0
   10.7220   -5.3880   15.7070 H   0  0  0  0  0
   10.1540   -3.1620   14.7720 H   0  0  0  0  0
    9.4360   -2.7190   16.3190 H   0  0  0  0  0
    8.5100   -2.5270   14.8320 H   0  0  0  0  0
 41  1  1  0  0  0
 42  2  1  0  0  0
 43  3  1  0  0  0
 44  4  1  0  0  0
 44  5  1  0  0  0
 46  6  1  0  0  0
 47  7  1  0  0  0
 48  8  1  0  0  0
 49  9  1  0  0  0
 50 10  1  0  0  0
 11 12  2  0  0  0
 11 13  1  0  0  0
 22 11  1  0  0  0
 13 14  1  0  0  0
 13 15  1  0  0  0
 14 78  1  0  0  0
 14 79  1  0  0  0
 14 80  1  0  0  0
 15 16  1  0  0  0
 15 81  1  0  0  0
 15 82  1  0  0  0
 16 17  4  0  0  0
 16 18  4  0  0  0
 17 19  4  0  0  0
 17 83  1  0  0  0
 18 20  4  0  0  0
 19 21  4  0  0  0
 19 84  1  0  0  0
 20 21  4  0  0  0
 20 85  1  0  0  0
 21 86  1  0  0  0
 23 22  1  0  0  0
 22 87  1  0  0  0
 24 23  1  0  0  0
 23 26  1  0  0  0
 23 88  1  0  0  0
 24 25  2  0  0  0
 29 24  1  0  0  0
 26 27  1  0  0  0
 26 28  1  0  0  0
 26 89  1  0  0  0
 27 90  1  0  0  0
 27 91  1  0  0  0
 27 92  1  0  0  0
 28 93  1  0  0  0
 28 94  1  0  0  0
 28 95  1  0  0  0
 30 29  1  0  0  0
 29 96  1  0  0  0
 30 31  1  0  0  0
 38 30  1  0  0  0
 30 97  1  0  0  0
 31 32  1  0  0  0
 31 98  1  0  0  0
 31 99  1  0  0  0
 32 33  4  0  0  0
 32 37  4  0  0  0
 33 34  4  0  0  0
 33100  1  0  0  0
 34 35  4  0  0  0
 34101  1  0  0  0
 36 35  4  0  0  0
 35102  1  0  0  0
 37 36  4  0  0  0
 36103  1  0  0  0
 37104  1  0  0  0
 38 39  1  0  0  0
 41 38  1  0  0  0
 38105  1  0  0  0
 39106  1  0  0  0
 41 43  1  0  0  0
 43 44  1  0  0  0
 44 45  1  0  0  0
 45 46  4  0  0  0
 45 50  4  0  0  0
 46 47  4  0  0  0
 47 48  4  0  0  0
 49 48  4  0  0  0
 50 49  4  0  0  0
 52 51  1  0  0  0
 51 58  1  0  0  0
 53 52  1  0  0  0
 52 55  1  0  0  0
 53 54  2  0  0  0
 55 56  1  0  0  0
 55 57  1  0  0  0
 58 59  2  0  0  0
 58 60  1  0  0  0
 60 61  1  0  0  0
 61 69  1  0  0  0
 61 70  1  0  0  0
 61 71  1  0  0  0
 60 62  1  0  0  0
 62 63  1  0  0  0
 62 72  1  0  0  0
 62 73  1  0  0  0
 63 64  4  0  0  0
 63 65  4  0  0  0
 64 66  4  0  0  0
 64 74  1  0  0  0
 65 67  4  0  0  0
 66 68  4  0  0  0
 66 75  1  0  0  0
 67 68  4  0  0  0
 67 76  1  0  0  0
 68 77  1  0  0  0
 57116  1  0  0  0
 57115  1  0  0  0
 57114  1  0  0  0
 56113  1  0  0  0
 56112  1  0  0  0
 56111  1  0  0  0
 55110  1  0  0  0
 52109  1  0  0  0
 51108  1  0  0  0
 40107  1  0  0  0
 42 53  1  0  0  0
 43 42  1  0  0  0
 41 40  1  0  0  0
M  END
$$$$
