### 
### Created by X-TOOL on Mon Oct 24 22:46:59 2005
### 

@<TRIPOS>MOLECULE
1jcx_ligand
   41    40     1     0     0
SMALL
GAST_HUCK


@<TRIPOS>ATOM
      1 H81        37.1568   54.4710   15.2756 H         1 SUB1        0.064
      2 H82        36.3097   55.4333   16.5339 H         1 SUB1        0.064
      3 P1         39.5660   55.8050   15.4410 P.3       1 SUB1        0.205
      4 O1P        39.6840   57.2810   15.3430 O.co2     1 SUB1       -0.535
      5 O2P        40.7160   55.1510   16.1060 O.co2     1 SUB1       -0.535
      6 O3P        38.3500   55.6480   16.4610 O.3       1 SUB1       -0.320
      7 O4P        39.2660   55.1660   14.1350 O.co2     1 SUB1       -0.535
      8 C6         37.1970   54.8200   16.3180 C.3       1 SUB1        0.094
      9 C5         37.1550   53.5930   17.2280 C.3       1 SUB1        0.111
     10 O1         38.3220   53.4570   18.0460 O.3       1 SUB1       -0.387
     11 C4         35.8850   53.7040   18.0840 C.3       1 SUB1        0.112
     12 O4         34.6770   54.0020   17.3690 O.3       1 SUB1       -0.387
     13 C3         35.7660   52.4250   18.9310 C.3       1 SUB1        0.111
     14 O3         35.5920   51.2360   18.1490 O.3       1 SUB1       -0.387
     15 C2         34.6120   52.6640   19.9040 C.3       1 SUB1        0.097
     16 O2         34.7960   53.7340   20.8260 O.3       1 SUB1       -0.388
     17 C1         34.3920   51.4260   20.7650 C.3       1 SUB1        0.031
     18 N1         33.0570   51.3440   21.0400 N.3       1 SUB1       -0.280
     19 C7         32.7280   51.5570   22.3570 C.3       1 SUB1        0.039
     20 C8         31.4380   52.1820   22.8710 C.2       1 SUB1        0.042
     21 O5         30.4040   51.4870   22.6190 O.co2     1 SUB1       -0.565
     22 O6         31.4790   53.2550   23.3760 O.co2     1 SUB1       -0.565
     23 C9         32.4540   50.2480   20.4700 C.3       1 SUB1        0.048
     24 P2         32.3140   49.4290   19.1640 P.3       1 SUB1        0.077
     25 O5P        32.9370   48.2010   19.6490 O.co2     1 SUB1       -0.542
     26 O6P        33.0370   50.0450   18.0160 O.co2     1 SUB1       -0.542
     27 O7P        30.7870   49.4420   18.8480 O.co2     1 SUB1       -0.542
     28 H91        37.0819   52.6943   16.5980 H         1 SUB1        0.065
     29 H101       38.4022   54.2171   18.6103 H         1 SUB1        0.210
     30 H111       36.0413   54.5443   18.7764 H         1 SUB1        0.065
     31 H121       34.7979   54.7966   16.8625 H         1 SUB1        0.210
     32 H131       36.6938   52.3018   19.5090 H         1 SUB1        0.065
     33 H141       34.7921   51.3064   17.6414 H         1 SUB1        0.210
     34 H151       33.7098   52.8667   19.3082 H         1 SUB1        0.063
     35 H161       34.9393   54.5420   20.3472 H         1 SUB1        0.210
     36 H171       34.9627   51.5144   21.7012 H         1 SUB1        0.046
     37 H172       34.7182   50.5278   20.2202 H         1 SUB1        0.046
     38 H191       33.5335   52.1912   22.7557 H         1 SUB1        0.065
     39 H192       32.7748   50.5646   22.8292 H         1 SUB1        0.065
     40 H231       31.3975   50.4817   20.6678 H         1 SUB1        0.050
     41 H232       32.7905   49.4597   21.1594 H         1 SUB1        0.050
@<TRIPOS>BOND
     1    3    7 2  
     2    3    6 1  
     3    3    5 2  
     4    3    4 2  
     5    6    8 1  
     6    8    9 1  
     7    9   11 1  
     8    9   10 1  
     9   11   13 1  
    10   11   12 1  
    11   13   15 1  
    12   13   14 1  
    13   15   17 1  
    14   15   16 1  
    15   17   18 1  
    16   18   23 1  
    17   18   19 1  
    18   19   20 1  
    19   20   22 2  
    20   20   21 2  
    21   23   24 1  
    22   24   27 2  
    23   24   26 2  
    24   24   25 2  
    25    8    1 1  
    26    8    2 1  
    27    9   28 1  
    28   10   29 1  
    29   11   30 1  
    30   12   31 1  
    31   13   32 1  
    32   14   33 1  
    33   15   34 1  
    34   16   35 1  
    35   17   36 1  
    36   17   37 1  
    37   19   38 1  
    38   19   39 1  
    39   23   40 1  
    40   23   41 1  
@<TRIPOS>SUBSTRUCTURE
     1 SUB1        1 GROUP

