1jcx_ligand
  -I-interpret- 

 41 40  0  0  0  0  0  0  0  0999 V2000
   37.1568   54.4710   15.2756 H   0  0  0  0  0
   36.3097   55.4333   16.5339 H   0  0  0  0  0
   39.5660   55.8050   15.4410 P   0  0  0  0  0
   39.6840   57.2810   15.3430 O   0  5  0  0  0
   40.7160   55.1510   16.1060 O   0  0  0  0  0
   38.3500   55.6480   16.4610 O   0  0  0  0  0
   39.2660   55.1660   14.1350 O   0  5  0  0  0
   37.1970   54.8200   16.3180 C   0  0  0  0  0
   37.1550   53.5930   17.2280 C   0  0  0  0  0
   38.3220   53.4570   18.0460 O   0  0  0  0  0
   35.8850   53.7040   18.0840 C   0  0  0  0  0
   34.6770   54.0020   17.3690 O   0  0  0  0  0
   35.7660   52.4250   18.9310 C   0  0  0  0  0
   35.5920   51.2360   18.1490 O   0  0  0  0  0
   34.6120   52.6640   19.9040 C   0  0  0  0  0
   34.7960   53.7340   20.8260 O   0  0  0  0  0
   34.3920   51.4260   20.7650 C   0  0  0  0  0
   33.0570   51.3440   21.0400 N   0  0  0  0  0
   32.7280   51.5570   22.3570 C   0  0  0  0  0
   31.4380   52.1820   22.8710 C   0  0  0  0  0
   30.4040   51.4870   22.6190 O   0  5  0  0  0
   31.4790   53.2550   23.3760 O   0  0  0  0  0
   32.4540   50.2480   20.4700 C   0  0  0  0  0
   32.3140   49.4290   19.1640 P   0  0  0  0  0
   32.9370   48.2010   19.6490 O   0  0  0  0  0
   33.0370   50.0450   18.0160 O   0  5  0  0  0
   30.7870   49.4420   18.8480 O   0  5  0  0  0
   37.0819   52.6943   16.5980 H   0  0  0  0  0
   38.4022   54.2171   18.6103 H   0  0  0  0  0
   36.0413   54.5443   18.7764 H   0  0  0  0  0
   34.7979   54.7966   16.8625 H   0  0  0  0  0
   36.6938   52.3018   19.5090 H   0  0  0  0  0
   34.7921   51.3064   17.6414 H   0  0  0  0  0
   33.7098   52.8667   19.3082 H   0  0  0  0  0
   34.9393   54.5420   20.3472 H   0  0  0  0  0
   34.9627   51.5144   21.7012 H   0  0  0  0  0
   34.7182   50.5278   20.2202 H   0  0  0  0  0
   33.5335   52.1912   22.7557 H   0  0  0  0  0
   32.7748   50.5646   22.8292 H   0  0  0  0  0
   31.3975   50.4817   20.6678 H   0  0  0  0  0
   32.7905   49.4597   21.1594 H   0  0  0  0  0
  3  7  1  0  0  0
  3  6  1  0  0  0
  3  5  2  0  0  0
  3  4  1  0  0  0
  6  8  1  0  0  0
  8  9  1  0  0  0
  9 11  1  0  0  0
  9 10  1  0  0  0
 11 13  1  0  0  0
 11 12  1  0  0  0
 13 15  1  0  0  0
 13 14  1  0  0  0
 15 17  1  0  0  0
 15 16  1  0  0  0
 17 18  1  0  0  0
 18 23  1  0  0  0
 18 19  1  0  0  0
 19 20  1  0  0  0
 20 22  2  0  0  0
 20 21  1  0  0  0
 23 24  1  0  0  0
 24 27  1  0  0  0
 24 26  1  0  0  0
 24 25  2  0  0  0
  8  1  1  0  0  0
  8  2  1  0  0  0
  9 28  1  0  0  0
 10 29  1  0  0  0
 11 30  1  0  0  0
 12 31  1  0  0  0
 13 32  1  0  0  0
 14 33  1  0  0  0
 15 34  1  0  0  0
 16 35  1  0  0  0
 17 36  1  0  0  0
 17 37  1  0  0  0
 19 38  1  0  0  0
 19 39  1  0  0  0
 23 40  1  0  0  0
 23 41  1  0  0  0
M  END
$$$$
