### 
### Created by X-TOOL on Mon Oct 24 23:30:32 2005
### 

@<TRIPOS>MOLECULE
1gar_ligand
   82    83     1     0     0
SMALL
GAST_HUCK


@<TRIPOS>ATOM
      1 N          50.7900    2.4340  -12.2400 N.am      1 SUB1       -0.271
      2 CA         51.9970    1.8220  -12.8110 C.3       1 SUB1        0.083
      3 CB         51.7570    0.3080  -12.7750 C.3       1 SUB1       -0.007
      4 CG         51.8850   -0.0440  -11.3210 C.3       1 SUB1       -0.009
      5 CD         51.6320   -1.4890  -11.0180 C.2       1 SUB1        0.028
      6 OE1        50.4620   -1.8520  -10.9900 O.co2     1 SUB1       -0.567
      7 OE2        52.5840   -2.2340  -10.7630 O.co2     1 SUB1       -0.567
      8 C          52.5050    2.3010  -14.1960 C.2       1 SUB1        0.053
      9 OT1        52.6710    3.5180  -14.3420 O.co2     1 SUB1       -0.564
     10 OT2        52.7870    1.5120  -15.1190 O.co2     1 SUB1       -0.564
     11 C1         49.6120   12.0610   -4.0070 C.3       1 SUB1        0.066
     12 C2         48.0770   12.0260   -3.9520 C.3       1 SUB1       -0.023
     13 C3         47.4720   12.8230   -5.0800 C.3       1 SUB1       -0.030
     14 C4         47.6320   12.0900   -6.4010 C.3       1 SUB1        0.031
     15 N5         46.8850   10.8430   -6.4250 N.am      1 SUB1       -0.286
     16 C6         46.5720   10.2380   -7.5760 C.2       1 SUB1        0.186
     17 O6         46.8360   10.7430   -8.6710 O.2       1 SUB1       -0.396
     18 C7         45.8490    8.9010   -7.5170 C.3       1 SUB1        0.086
     19 S          47.0590    7.5730   -7.5910 S.3       1 SUB1       -0.117
     20 C8         46.8540    7.0820   -9.3210 C.3       1 SUB1        0.092
     21 C9         45.5940    6.3190   -9.7940 C.2       1 SUB1        0.218
     22 O9         44.5840    6.9980  -10.0500 O.2       1 SUB1       -0.383
     23 N10        45.5890    4.9790  -10.0710 N.am      1 SUB1       -0.216
     24 C11        44.3220    4.2550  -10.2850 C.3       1 SUB1        0.058
     25 C12        43.3810    4.2990   -9.0680 C.3       1 SUB1       -0.026
     26 C13        43.5480    3.3080   -7.9030 C.3       1 SUB1       -0.036
     27 C14        43.2250    1.8410   -8.1970 C.2       1 SUB1        0.016
     28 C15        41.9510    1.4720   -8.6470 C.2       1 SUB1        0.187
     29 O15        40.9940    2.2330   -8.8170 O.2       1 SUB1       -0.427
     30 N16        41.8130    0.1090   -8.9020 N.am      1 SUB1       -0.188
     31 C17        42.8430   -0.7910   -8.7360 C.2       1 SUB1        0.236
     32 N18        42.6310   -2.0710   -9.0150 N.pl3     1 SUB1       -0.280
     33 N19        44.0290   -0.3880   -8.2860 N.2       1 SUB1       -0.280
     34 C20        44.1920    0.9090   -7.9930 C.2       1 SUB1        0.060
     35 N21        45.3770    1.2690   -7.5220 N.pl3     1 SUB1       -0.333
     36 C22        46.6040    4.3540  -10.7300 C.ar      1 SUB1        0.075
     37 C23        47.3400    4.9970  -11.6590 C.ar      1 SUB1       -0.035
     38 C24        48.3380    4.3660  -12.3090 C.ar      1 SUB1       -0.055
     39 C25        48.6130    3.0830  -12.0410 C.ar      1 SUB1        0.034
     40 C26        47.8990    2.4350  -11.1110 C.ar      1 SUB1       -0.055
     41 C27        46.8970    3.0640  -10.4560 C.ar      1 SUB1       -0.035
     42 C28        49.5680    2.4140  -12.8040 C.2       1 SUB1        0.197
     43 O28        49.2690    1.8740  -13.8850 O.2       1 SUB1       -0.392
     44 OP4        50.1590   13.2090   -3.3470 O.3       1 SUB1       -0.322
     45 P          50.6640   13.1070   -1.8350 P.3       1 SUB1        0.205
     46 OP1        51.7400   11.9150   -1.8660 O.co2     1 SUB1       -0.535
     47 OP2        49.5270   12.7230   -0.9690 O.co2     1 SUB1       -0.535
     48 OP3        51.3900   14.3420   -1.4820 O.co2     1 SUB1       -0.535
     49 H11        50.8836    2.9031  -11.3618 H         1 SUB1        0.189
     50 H21        52.8162    2.0471  -12.1123 H         1 SUB1        0.078
     51 H31        52.5121   -0.2222  -13.3738 H         1 SUB1        0.036
     52 H32        50.7526    0.0620  -13.1501 H         1 SUB1        0.036
     53 H41        51.1611    0.5598  -10.7541 H         1 SUB1        0.049
     54 H42        52.9055    0.2042  -10.9938 H         1 SUB1        0.049
     55 H111       49.9269   12.0767   -5.0608 H         1 SUB1        0.061
     56 H112       50.0031   11.1551   -3.5209 H         1 SUB1        0.061
     57 H121       47.7391   10.9820   -4.0289 H         1 SUB1        0.029
     58 H122       47.7427   12.4500   -2.9936 H         1 SUB1        0.029
     59 H131       46.4014   12.9770   -4.8797 H         1 SUB1        0.029
     60 H132       47.9769   13.7981   -5.1445 H         1 SUB1        0.029
     61 H141       47.2688   12.7374   -7.2127 H         1 SUB1        0.052
     62 H142       48.6980   11.8686   -6.5576 H         1 SUB1        0.052
     63 H151       46.5987   10.4282   -5.5613 H         1 SUB1        0.185
     64 H181       45.2818    8.8304   -6.5772 H         1 SUB1        0.062
     65 H182       45.1585    8.8179   -8.3692 H         1 SUB1        0.062
     66 H201       46.8997    8.0067   -9.9149 H         1 SUB1        0.062
     67 H202       47.7156    6.4444   -9.5682 H         1 SUB1        0.062
     68 H241       44.5545    3.2033  -10.5083 H         1 SUB1        0.059
     69 H242       43.8031    4.7061  -11.1436 H         1 SUB1        0.059
     70 H251       42.3613    4.1577   -9.4554 H         1 SUB1        0.030
     71 H252       43.4732    5.3069   -8.6372 H         1 SUB1        0.030
     72 H261       42.8875    3.6378   -7.0875 H         1 SUB1        0.031
     73 H262       44.5951    3.3584   -7.5699 H         1 SUB1        0.031
     74 H301       40.9277   -0.2308   -9.2194 H         1 SUB1        0.252
     75 H321       41.7110   -2.3767   -9.3629 H         1 SUB1        0.190
     76 H322       43.3864   -2.7587   -8.8836 H         1 SUB1        0.190
     77 H351       46.1075    0.5593   -7.3687 H         1 SUB1        0.175
     78 H352       45.5676    2.2586   -7.3092 H         1 SUB1        0.175
     79 H371       47.1262    6.0352  -11.8861 H         1 SUB1        0.052
     80 H381       48.9204    4.8992  -13.0517 H         1 SUB1        0.063
     81 H401       48.1259    1.4000  -10.8821 H         1 SUB1        0.063
     82 H411       46.3251    2.5296   -9.7061 H         1 SUB1        0.052
@<TRIPOS>BOND
     1    1   42 am 
     2    1    2 1  
     3    2    8 1  
     4    2    3 1  
     5    3    4 1  
     6    4    5 1  
     7    5    7 2  
     8    5    6 2  
     9    8   10 2  
    10    8    9 2  
    11   42   43 2  
    12   42   39 1  
    13   39   40 ar 
    14   39   38 ar 
    15   38   37 ar 
    16   37   36 ar 
    17   36   41 ar 
    18   36   23 1  
    19   23   24 1  
    20   23   21 am 
    21   21   22 2  
    22   21   20 1  
    23   20   19 1  
    24   19   18 1  
    25   18   16 1  
    26   16   17 2  
    27   16   15 am 
    28   15   14 1  
    29   14   13 1  
    30   13   12 1  
    31   12   11 1  
    32   11   44 1  
    33   44   45 1  
    34   45   48 2  
    35   45   47 2  
    36   45   46 2  
    37   24   25 1  
    38   25   26 1  
    39   26   27 1  
    40   27   34 2  
    41   27   28 1  
    42   28   30 am 
    43   28   29 2  
    44   30   31 am 
    45   31   33 2  
    46   31   32 1  
    47   33   34 1  
    48   34   35 1  
    49   41   40 ar 
    50    1   49 1  
    51    2   50 1  
    52    3   51 1  
    53    3   52 1  
    54    4   53 1  
    55    4   54 1  
    56   11   55 1  
    57   11   56 1  
    58   12   57 1  
    59   12   58 1  
    60   13   59 1  
    61   13   60 1  
    62   14   61 1  
    63   14   62 1  
    64   15   63 1  
    65   18   64 1  
    66   18   65 1  
    67   20   66 1  
    68   20   67 1  
    69   24   68 1  
    70   24   69 1  
    71   25   70 1  
    72   25   71 1  
    73   26   72 1  
    74   26   73 1  
    75   30   74 1  
    76   32   75 1  
    77   32   76 1  
    78   35   77 1  
    79   35   78 1  
    80   37   79 1  
    81   38   80 1  
    82   40   81 1  
    83   41   82 1  
@<TRIPOS>SUBSTRUCTURE
     1 SUB1        1 GROUP

