### 
### Created by X-TOOL on Tue Oct 25 00:28:43 2005
### 

@<TRIPOS>MOLECULE
1bn4_ligand
   36    37     1     0     0
SMALL
GAST_HUCK


@<TRIPOS>ATOM
      1 H41        -1.8405    5.3419   13.8909 H         1 SUB1        0.062
      2 H42        -3.0378    5.7445   15.1680 H         1 SUB1        0.062
      3 C3         -5.3340    1.9280   15.8380 C.2       1 SUB1        0.162
      4 C9         -2.6420    6.0360   14.1840 C.3       1 SUB1        0.055
      5 C10        -2.0580    7.4270   14.2930 C.ar      1 SUB1       -0.035
      6 C11        -1.5690    8.0980   13.1690 C.ar      1 SUB1       -0.067
      7 C12        -1.0250    9.3690   13.3220 C.ar      1 SUB1       -0.040
      8 C13        -0.9660    9.9790   14.5860 C.ar      1 SUB1        0.084
      9 C14        -1.4620    9.2940   15.6900 C.ar      1 SUB1       -0.040
     10 C15        -2.0050    8.0260   15.5480 C.ar      1 SUB1       -0.067
     11 O2A        -7.3330    0.8630   16.8700 O.2       1 SUB1       -0.150
     12 O1A        -5.4060    0.9380   18.1940 O.2       1 SUB1       -0.150
     13 N21        -5.4190   -0.6910   16.2970 N.am      1 SUB1       -0.261
     14 S1         -5.9230    0.6810   16.8990 S.o2      1 SUB1        0.075
     15 C4         -4.0780    1.8800   15.2730 C.2       1 SUB1       -0.050
     16 C5         -3.8100    3.0110   14.5290 C.2       1 SUB1       -0.050
     17 C6         -4.8720    3.8920   14.5410 C.2       1 SUB1        0.162
     18 S2         -6.2230    3.3680   15.4530 S.3       1 SUB1        0.011
     19 S7         -4.9970    5.4380   13.7870 S.o2      1 SUB1        0.078
     20 O3B        -5.9560    5.3350   12.7320 O.2       1 SUB1       -0.150
     21 O4B        -5.5240    6.3620   14.7360 O.2       1 SUB1       -0.150
     22 N8         -3.7200    5.9420   13.2030 N.am      1 SUB1       -0.237
     23 O16        -0.4480   11.1690   14.7670 O.3       1 SUB1       -0.326
     24 C17         0.0540   11.7940   13.5620 C.3       1 SUB1        0.058
     25 H61        -1.6131    7.6339   12.1903 H         1 SUB1        0.053
     26 H71        -0.6419    9.8952   12.4552 H         1 SUB1        0.052
     27 H91        -1.4238    9.7554   16.6702 H         1 SUB1        0.052
     28 H101       -2.3885    7.5009   16.4153 H         1 SUB1        0.053
     29 H131       -5.6481   -1.5579   16.7575 H         1 SUB1        0.163
     30 H151       -3.3825    1.0515   15.3982 H         1 SUB1        0.042
     31 H161       -2.8756    3.1866   13.9979 H         1 SUB1        0.042
     32 H221       -3.6132    6.1897   12.2401 H         1 SUB1        0.170
     33 H241        0.4679   12.7832   13.8072 H         1 SUB1        0.058
     34 H242       -0.7671   11.9090   12.8391 H         1 SUB1        0.058
     35 H243        0.8428   11.1649   13.1239 H         1 SUB1        0.058
     36 H132       -4.8729   -0.6989   15.4593 H         1 SUB1        0.163
@<TRIPOS>BOND
     1    3   18 1  
     2    3   15 2  
     3    3   14 1  
     4   14   11 2  
     5   14   12 2  
     6   14   13 1  
     7   15   16 1  
     8   16   17 2  
     9   17   19 1  
    10   17   18 1  
    11   19   22 1  
    12   19   21 2  
    13   19   20 2  
    14   22    4 1  
    15    4    5 1  
    16    5   10 ar 
    17    5    6 ar 
    18    6    7 ar 
    19    7    8 ar 
    20    8   23 1  
    21    8    9 ar 
    22    9   10 ar 
    23   23   24 1  
    24    4    1 1  
    25    4    2 1  
    26    6   25 1  
    27    7   26 1  
    28    9   27 1  
    29   10   28 1  
    30   13   29 1  
    31   15   30 1  
    32   16   31 1  
    33   22   32 1  
    34   24   33 1  
    35   24   34 1  
    36   24   35 1  
    37   13   36 1  
@<TRIPOS>SUBSTRUCTURE
     1 SUB1        1 GROUP

