1bn4_ligand
  -I-interpret- 

 36 37  0  0  0  0  0  0  0  0999 V2000
   -1.8405    5.3419   13.8909 H   0  0  0  0  0
   -3.0378    5.7445   15.1680 H   0  0  0  0  0
   -5.3340    1.9280   15.8380 C   0  0  0  0  0
   -2.6420    6.0360   14.1840 C   0  0  0  0  0
   -2.0580    7.4270   14.2930 C   0  0  0  0  0
   -1.5690    8.0980   13.1690 C   0  0  0  0  0
   -1.0250    9.3690   13.3220 C   0  0  0  0  0
   -0.9660    9.9790   14.5860 C   0  0  0  0  0
   -1.4620    9.2940   15.6900 C   0  0  0  0  0
   -2.0050    8.0260   15.5480 C   0  0  0  0  0
   -7.3330    0.8630   16.8700 O   0  0  0  0  0
   -5.4060    0.9380   18.1940 O   0  0  0  0  0
   -5.4190   -0.6910   16.2970 N   0  0  0  0  0
   -5.9230    0.6810   16.8990 S   0  0  0  0  0
   -4.0780    1.8800   15.2730 C   0  0  0  0  0
   -3.8100    3.0110   14.5290 C   0  0  0  0  0
   -4.8720    3.8920   14.5410 C   0  0  0  0  0
   -6.2230    3.3680   15.4530 S   0  0  0  0  0
   -4.9970    5.4380   13.7870 S   0  0  0  0  0
   -5.9560    5.3350   12.7320 O   0  0  0  0  0
   -5.5240    6.3620   14.7360 O   0  0  0  0  0
   -3.7200    5.9420   13.2030 N   0  0  0  0  0
   -0.4480   11.1690   14.7670 O   0  0  0  0  0
    0.0540   11.7940   13.5620 C   0  0  0  0  0
   -1.6131    7.6339   12.1903 H   0  0  0  0  0
   -0.6419    9.8952   12.4552 H   0  0  0  0  0
   -1.4238    9.7554   16.6702 H   0  0  0  0  0
   -2.3885    7.5009   16.4153 H   0  0  0  0  0
   -5.6481   -1.5579   16.7575 H   0  0  0  0  0
   -3.3825    1.0515   15.3982 H   0  0  0  0  0
   -2.8756    3.1866   13.9979 H   0  0  0  0  0
   -3.6132    6.1897   12.2401 H   0  0  0  0  0
    0.4679   12.7832   13.8072 H   0  0  0  0  0
   -0.7671   11.9090   12.8391 H   0  0  0  0  0
    0.8428   11.1649   13.1239 H   0  0  0  0  0
   -4.8729   -0.6989   15.4593 H   0  0  0  0  0
  3 18  1  0  0  0
  3 15  2  0  0  0
  3 14  1  0  0  0
 14 11  2  0  0  0
 14 12  2  0  0  0
 14 13  1  0  0  0
 15 16  1  0  0  0
 16 17  2  0  0  0
 17 19  1  0  0  0
 17 18  1  0  0  0
 19 22  1  0  0  0
 19 21  2  0  0  0
 19 20  2  0  0  0
 22  4  1  0  0  0
  4  5  1  0  0  0
  5 10  4  0  0  0
  5  6  4  0  0  0
  6  7  4  0  0  0
  7  8  4  0  0  0
  8 23  1  0  0  0
  8  9  4  0  0  0
  9 10  4  0  0  0
 23 24  1  0  0  0
  4  1  1  0  0  0
  4  2  1  0  0  0
  6 25  1  0  0  0
  7 26  1  0  0  0
  9 27  1  0  0  0
 10 28  1  0  0  0
 13 29  1  0  0  0
 15 30  1  0  0  0
 16 31  1  0  0  0
 22 32  1  0  0  0
 24 33  1  0  0  0
 24 34  1  0  0  0
 24 35  1  0  0  0
 13 36  1  0  0  0
M  END
$$$$
