### 
### Created by X-TOOL on Mon Oct 24 22:33:55 2005
### 

@<TRIPOS>MOLECULE
1m2r_ligand
   30    32     1     0     0
SMALL
GAST_HUCK


@<TRIPOS>ATOM
      1 C1         21.5130    7.6720   21.5810 C.ar      1 SUB1        0.102
      2 C2         22.0260    7.7570   20.2360 C.ar      1 SUB1        0.068
      3 C3         23.0010    6.7960   19.7840 C.ar      1 SUB1        0.068
      4 C4         23.4540    5.7800   20.6920 C.ar      1 SUB1        0.102
      5 C5         22.9340    5.7210   22.0060 C.ar      1 SUB1       -0.030
      6 C6         21.9770    6.6620   22.4480 C.ar      1 SUB1       -0.030
      7 C13        23.5400    6.8830   18.3890 C.2       1 SUB1        0.148
      8 C14        23.0600    7.9470   17.4510 C.ar      1 SUB1        0.055
      9 C15        22.0770    8.9050   17.9020 C.ar      1 SUB1        0.055
     10 C16        21.5390    8.8170   19.2950 C.2       1 SUB1        0.148
     11 C22        21.6190    9.9200   16.9970 C.ar      1 SUB1        0.048
     12 C23        22.1450    9.9810   15.6890 C.ar      1 SUB1       -0.043
     13 C24        23.1090    9.0530   15.2480 C.ar      1 SUB1       -0.043
     14 C25        23.5750    8.0420   16.1080 C.ar      1 SUB1        0.048
     15 O16        20.6980    9.6380   19.6810 O.2       1 SUB1       -0.378
     16 O13        24.3850    6.0580   17.9990 O.2       1 SUB1       -0.378
     17 O1         20.5630    8.5850   22.0650 O.3       1 SUB1       -0.333
     18 N22        20.6610   10.8750   17.3780 N.pl3     1 SUB1       -0.338
     19 N25        24.5640    7.1190   15.6050 N.pl3     1 SUB1       -0.338
     20 O4         24.4300    4.7990   20.2930 O.3       1 SUB1       -0.333
     21 H51        23.2737    4.9447   22.6820 H         1 SUB1        0.057
     22 H61        21.5967    6.6068   23.4616 H         1 SUB1        0.057
     23 H121       21.8016   10.7549   15.0121 H         1 SUB1        0.054
     24 H131       23.4950    9.1186   14.2372 H         1 SUB1        0.054
     25 H171       20.3428    9.2045   21.3793 H         1 SUB1        0.248
     26 H181       20.2610   10.8530   18.3269 H         1 SUB1        0.171
     27 H182       20.3589   11.5969   16.7083 H         1 SUB1        0.171
     28 H191       24.9238    6.3685   16.2118 H         1 SUB1        0.171
     29 H192       24.9100    7.2108   14.6392 H         1 SUB1        0.171
     30 H201       24.6884    4.9589   19.3929 H         1 SUB1        0.248
@<TRIPOS>BOND
     1    1    2 ar 
     2    1    6 ar 
     3    1   17 1  
     4    2    3 ar 
     5    2   10 1  
     6    3    4 ar 
     7    3    7 1  
     8    4    5 ar 
     9    4   20 1  
    10    5    6 ar 
    11    7    8 1  
    12    7   16 2  
    13    8    9 ar 
    14    8   14 ar 
    15    9   10 1  
    16    9   11 ar 
    17   10   15 2  
    18   11   12 ar 
    19   11   18 1  
    20   12   13 ar 
    21   13   14 ar 
    22   14   19 1  
    23    5   21 1  
    24    6   22 1  
    25   12   23 1  
    26   13   24 1  
    27   17   25 1  
    28   18   26 1  
    29   18   27 1  
    30   19   28 1  
    31   19   29 1  
    32   20   30 1  
@<TRIPOS>SUBSTRUCTURE
     1 SUB1        1 GROUP

