### 
### Created by X-TOOL on Mon Oct 24 22:02:07 2005
### 

@<TRIPOS>MOLECULE
1adl_ligand
   53    52     1     0     0
SMALL
GAST_HUCK


@<TRIPOS>ATOM
      1 C1        -45.2660   66.7790   -6.1190 C.2       1 SUB1        0.028
      2 C2        -45.8140   68.0270   -5.4800 C.3       1 SUB1       -0.012
      3 C3        -45.4540   69.2900   -6.2320 C.3       1 SUB1       -0.035
      4 C4        -46.3450   70.4390   -5.7980 C.3       1 SUB1       -0.033
      5 C5        -46.0310   71.6830   -6.4670 C.2       1 SUB1       -0.096
      6 C6        -47.0010   72.3420   -7.2130 C.2       1 SUB1       -0.091
      7 C7        -48.3430   71.8000   -7.3350 C.3       1 SUB1       -0.020
      8 C8        -49.3750   72.7980   -7.1340 C.2       1 SUB1       -0.089
      9 C9        -50.5050   72.8260   -7.9440 C.2       1 SUB1       -0.089
     10 C10       -50.6890   71.8590   -9.0160 C.3       1 SUB1       -0.020
     11 C11       -51.8680   72.1300   -9.8220 C.2       1 SUB1       -0.089
     12 C12       -52.1030   71.4520  -11.0180 C.2       1 SUB1       -0.089
     13 C13       -51.1800   70.4440  -11.5090 C.3       1 SUB1       -0.020
     14 C14       -51.8110   69.4860  -12.4070 C.2       1 SUB1       -0.091
     15 C15       -51.2460   68.2290  -12.6230 C.2       1 SUB1       -0.097
     16 C16       -50.0130   67.8490  -11.9600 C.3       1 SUB1       -0.036
     17 C17       -50.2370   67.2300  -10.5850 C.3       1 SUB1       -0.046
     18 C18       -48.9160   66.9360   -9.8970 C.3       1 SUB1       -0.052
     19 C19       -48.1220   68.2090   -9.6480 C.3       1 SUB1       -0.056
     20 C20       -46.7200   67.8860   -9.1950 C.3       1 SUB1       -0.065
     21 O1        -44.0870   66.7640   -6.5490 O.co2     1 SUB1       -0.567
     22 O2        -46.0240   65.7870   -6.2080 O.co2     1 SUB1       -0.567
     23 H21       -45.4125   68.1020   -4.4587 H         1 SUB1        0.049
     24 H22       -46.9102   67.9457   -5.4380 H         1 SUB1        0.049
     25 H31       -45.5841   69.1186   -7.3107 H         1 SUB1        0.032
     26 H32       -44.4047   69.5477   -6.0255 H         1 SUB1        0.032
     27 H41       -46.2262   70.5844   -4.7142 H         1 SUB1        0.039
     28 H42       -47.3896   70.1756   -6.0203 H         1 SUB1        0.039
     29 H51       -45.0303   72.1047   -6.3856 H         1 SUB1        0.046
     30 H61       -46.7516   73.2770   -7.7126 H         1 SUB1        0.046
     31 H71       -48.4708   71.0068   -6.5837 H         1 SUB1        0.051
     32 H72       -48.4590   71.3732   -8.3422 H         1 SUB1        0.051
     33 H81       -49.2641   73.5344   -6.3394 H         1 SUB1        0.047
     34 H91       -51.2664   73.5856   -7.7730 H         1 SUB1        0.047
     35 H101      -50.7889   70.8573   -8.5726 H         1 SUB1        0.052
     36 H102      -49.8037   71.8846   -9.6684 H         1 SUB1        0.052
     37 H111      -52.5833   72.8787   -9.4847 H         1 SUB1        0.047
     38 H121      -52.9969   71.6832  -11.5954 H         1 SUB1        0.047
     39 H131      -50.7662   69.8981  -10.6483 H         1 SUB1        0.051
     40 H132      -50.3654   70.9478  -12.0498 H         1 SUB1        0.051
     41 H141      -52.7355   69.7546  -12.9161 H         1 SUB1        0.046
     42 H151      -51.7353   67.5262  -13.2958 H         1 SUB1        0.046
     43 H161      -49.3885   68.7468  -11.8417 H         1 SUB1        0.039
     44 H162      -49.4876   67.1174  -12.5914 H         1 SUB1        0.039
     45 H171      -50.7987   66.2913  -10.7006 H         1 SUB1        0.029
     46 H172      -50.8167   67.9303   -9.9657 H         1 SUB1        0.029
     47 H181      -48.3229   66.2637  -10.5343 H         1 SUB1        0.027
     48 H182      -49.1164   66.4454   -8.9331 H         1 SUB1        0.027
     49 H191      -48.6250   68.8013   -8.8694 H         1 SUB1        0.026
     50 H192      -48.0746   68.7924  -10.5793 H         1 SUB1        0.026
     51 H201      -46.1663   68.8205   -9.0216 H         1 SUB1        0.023
     52 H202      -46.2104   67.2966   -9.9714 H         1 SUB1        0.023
     53 H203      -46.7608   67.3054   -8.2616 H         1 SUB1        0.023
@<TRIPOS>BOND
     1    1   22 2  
     2    1   21 2  
     3    1    2 1  
     4    2    3 1  
     5    3    4 1  
     6    4    5 1  
     7    5    6 2  
     8    6    7 1  
     9    7    8 1  
    10    8    9 2  
    11    9   10 1  
    12   10   11 1  
    13   11   12 2  
    14   12   13 1  
    15   13   14 1  
    16   14   15 2  
    17   15   16 1  
    18   16   17 1  
    19   17   18 1  
    20   18   19 1  
    21   19   20 1  
    22    2   23 1  
    23    2   24 1  
    24    3   25 1  
    25    3   26 1  
    26    4   27 1  
    27    4   28 1  
    28    5   29 1  
    29    6   30 1  
    30    7   31 1  
    31    7   32 1  
    32    8   33 1  
    33    9   34 1  
    34   10   35 1  
    35   10   36 1  
    36   11   37 1  
    37   12   38 1  
    38   13   39 1  
    39   13   40 1  
    40   14   41 1  
    41   15   42 1  
    42   16   43 1  
    43   16   44 1  
    44   17   45 1  
    45   17   46 1  
    46   18   47 1  
    47   18   48 1  
    48   19   49 1  
    49   19   50 1  
    50   20   51 1  
    51   20   52 1  
    52   20   53 1  
@<TRIPOS>SUBSTRUCTURE
     1 SUB1        1 GROUP

