### 
### Created by X-TOOL on Mon Oct 24 22:35:33 2005
### 

@<TRIPOS>MOLECULE
1c5x_ligand
   21    22     1     0     0
SMALL
GAST_HUCK


@<TRIPOS>ATOM
      1 C0          7.9510   -0.9830   25.9110 C.cat     1 SUB1        0.250
      2 C1          8.2930    0.2880   25.5050 C.2       1 SUB1        0.086
      3 N1          7.3070   -1.1620   27.0290 N.pl3     1 SUB1       -0.270
      4 N2          8.3420   -1.9500   25.1290 N.pl3     1 SUB1       -0.270
      5 S2          9.0260    0.6610   23.8540 S.3       1 SUB1       -0.031
      6 C3          9.1720    2.3800   24.1510 C.ar      1 SUB1        0.040
      7 C4          8.6640    2.6270   25.4550 C.ar      1 SUB1       -0.015
      8 C5          8.2290    1.5180   26.1370 C.2       1 SUB1       -0.054
      9 C6          9.6550    3.3990   23.3520 C.ar      1 SUB1       -0.047
     10 C7          9.6440    4.6920   23.8400 C.ar      1 SUB1       -0.067
     11 C8          9.1550    4.9540   25.1360 C.ar      1 SUB1       -0.061
     12 C9          8.6720    3.9300   25.9340 C.ar      1 SUB1        0.004
     13 I9          8.0320    4.5270   27.8120 I         1 SUB1       -0.055
     14 H31         7.1350   -0.3460   27.5900 H         1 SUB1        0.318
     15 H32         6.9980   -2.0340   27.3950 H         1 SUB1        0.318
     16 H41         8.8990   -1.7150   24.3130 H         1 SUB1        0.318
     17 H42         8.1870   -2.9120   25.2880 H         1 SUB1        0.318
     18 H81         7.8360    1.6200   27.1390 H         1 SUB1        0.043
     19 H91        10.0150    3.1840   22.3600 H         1 SUB1        0.059
     20 H101       10.0160    5.5040   23.2320 H         1 SUB1        0.057
     21 H111        9.1590    5.9550   25.5180 H         1 SUB1        0.059
@<TRIPOS>BOND
     1    2    5 1  
     2    3   15 1  
     3    3   14 1  
     4    4   16 1  
     5    4   17 1  
     6    5    6 1  
     7    7    6 ar 
     8    7   12 ar 
     9    8   18 1  
    10    9   19 1  
    11   11   10 ar 
    12   10   20 1  
    13   11   21 1  
    14   12   13 1  
    15    2    8 2  
    16    8    7 1  
    17   12   11 ar 
    18    9   10 ar 
    19    6    9 ar 
    20    1    2 1  
    21    1    3 1  
    22    1    4 1  
@<TRIPOS>SUBSTRUCTURE
     1 SUB1        1 GROUP

