1c5x_ligand
  -I-interpret- 

 21 22  0  0  0  0  0  0  0  0999 V2000
    7.9510   -0.9830   25.9110 C   0  3  0  0  0
    8.2930    0.2880   25.5050 C   0  0  0  0  0
    7.3070   -1.1620   27.0290 N   0  0  0  0  0
    8.3420   -1.9500   25.1290 N   0  0  0  0  0
    9.0260    0.6610   23.8540 S   0  0  0  0  0
    9.1720    2.3800   24.1510 C   0  0  0  0  0
    8.6640    2.6270   25.4550 C   0  0  0  0  0
    8.2290    1.5180   26.1370 C   0  0  0  0  0
    9.6550    3.3990   23.3520 C   0  0  0  0  0
    9.6440    4.6920   23.8400 C   0  0  0  0  0
    9.1550    4.9540   25.1360 C   0  0  0  0  0
    8.6720    3.9300   25.9340 C   0  0  0  0  0
    8.0320    4.5270   27.8120 I   0  0  0  0  0
    7.1350   -0.3460   27.5900 H   0  0  0  0  0
    6.9980   -2.0340   27.3950 H   0  0  0  0  0
    8.8990   -1.7150   24.3130 H   0  0  0  0  0
    8.1870   -2.9120   25.2880 H   0  0  0  0  0
    7.8360    1.6200   27.1390 H   0  0  0  0  0
   10.0150    3.1840   22.3600 H   0  0  0  0  0
   10.0160    5.5040   23.2320 H   0  0  0  0  0
    9.1590    5.9550   25.5180 H   0  0  0  0  0
  2  5  1  0  0  0
  3 15  1  0  0  0
  3 14  1  0  0  0
  4 16  1  0  0  0
  4 17  1  0  0  0
  5  6  1  0  0  0
  7  6  4  0  0  0
  7 12  4  0  0  0
  8 18  1  0  0  0
  9 19  1  0  0  0
 11 10  4  0  0  0
 10 20  1  0  0  0
 11 21  1  0  0  0
 12 13  1  0  0  0
  2  8  2  0  0  0
  8  7  1  0  0  0
 12 11  4  0  0  0
  9 10  4  0  0  0
  6  9  4  0  0  0
  1  2  1  0  0  0
  1  3  1  0  0  0
  1  4  1  0  0  0
M  END
$$$$
