1ppk_ligand
  -I-interpret- 

 80 79  0  0  0  0  0  0  0  0999 V2000
   17.7868    6.1404   17.6707 H   0  0  0  0  0
   19.0282    4.8470   20.1602 H   0  0  0  0  0
   21.2053    5.7715   19.1950 H   0  0  0  0  0
   20.3979    3.4302   18.6239 H   0  0  0  0  0
   21.2743    4.1690   17.2409 H   0  0  0  0  0
   19.4793    4.1021   17.2342 H   0  0  0  0  0
   19.3840    6.4069   16.7842 H   0  0  0  0  0
   21.1709    6.5830   16.8331 H   0  0  0  0  0
   20.1360    7.6416   17.8503 H   0  0  0  0  0
   20.3615    6.3557   21.4147 H   0  0  0  0  0
   19.2971    9.1638   21.3103 H   0  0  0  0  0
   19.7221    7.6504   23.9337 H   0  0  0  0  0
   20.1575   10.1217   24.0023 H   0  0  0  0  0
   18.6488    9.7166   24.8890 H   0  0  0  0  0
   18.5591   10.4249   23.2408 H   0  0  0  0  0
   17.1532    8.5743   22.5822 H   0  0  0  0  0
   17.2949    7.8370   24.2141 H   0  0  0  0  0
   17.6939    6.8699   22.7539 H   0  0  0  0  0
   15.6209    5.2185   17.1774 H   0  0  0  0  0
   16.2282    3.5473   16.9222 H   0  0  0  0  0
   14.9147    2.8134   18.9640 H   0  0  0  0  0
   13.4008    4.6571   19.8403 H   0  0  0  0  0
   14.0591    5.7691   18.5927 H   0  0  0  0  0
   15.1187    5.1763   19.9165 H   0  0  0  0  0
   13.6544    2.6978   16.8130 H   0  0  0  0  0
   13.3290    4.4623   16.8966 H   0  0  0  0  0
   12.5872    3.3541   18.1001 H   0  0  0  0  0
   21.2376    9.7411   20.2618 H   0  0  0  0  0
   23.7502    9.4066   21.8385 H   0  0  0  0  0
   24.9611    9.6081   19.6879 H   0  0  0  0  0
   23.4228    9.9133   18.8121 H   0  0  0  0  0
   22.6302    7.6079   19.3846 H   0  0  0  0  0
   24.2163    6.4342   17.8606 H   0  0  0  0  0
   25.3809    7.7857   18.0694 H   0  0  0  0  0
   23.7906    8.0829   17.2887 H   0  0  0  0  0
   23.8311    7.2079   21.4850 H   0  0  0  0  0
   25.3814    7.1178   20.5823 H   0  0  0  0  0
   24.1007    5.8921   20.2923 H   0  0  0  0  0
   21.7743   11.4268   23.0176 H   0  0  0  0  0
   22.2682   13.1376   22.7809 H   0  0  0  0  0
   25.7810   11.8588   25.2144 H   0  0  0  0  0
   25.2300   13.1818   26.2973 H   0  0  0  0  0
   27.4833   13.6460   25.3868 H   0  0  0  0  0
   26.2826   14.8461   24.7996 H   0  0  0  0  0
   26.8336   13.5231   23.7167 H   0  0  0  0  0
   15.8930    4.2760   17.6750 C   0  0  0  0  0
   14.6850    3.7270   18.3960 C   0  0  0  0  0
   14.2890    4.9130   19.2440 C   0  0  0  0  0
   13.4810    3.5480   17.4890 C   0  0  0  0  0
   17.0470    4.5420   18.6790 C   0  0  0  0  0
   17.1330    3.7770   19.6530 O   0  0  0  0  0
   17.8940    5.5230   18.4500 N   0  0  0  0  0
   19.0350    5.6660   19.4260 C   0  0  0  0  0
   18.9010    6.9930   20.1440 C   0  0  0  0  0
   18.1120    7.8900   19.6950 O   0  0  0  0  0
   20.3170    5.6050   18.5680 C   0  0  0  0  0
   20.3710    4.2270   17.8660 C   0  0  0  0  0
   20.2470    6.6320   17.4280 C   0  0  0  0  0
   19.7610    7.1140   21.1610 N   0  0  0  0  0
   19.8050    8.3850   21.8980 C   0  0  0  0  0
   21.3340    8.7140   22.0180 C   0  0  0  0  0
   21.9430    8.2540   22.9760 O   0  0  0  0  0
   19.1490    8.3320   23.2880 C   0  0  0  0  0
   19.1270    9.7510   23.8990 C   0  0  0  0  0
   17.7290    7.8730   23.2040 C   0  0  0  0  0
   21.8380    9.4640   21.0120 N   0  0  0  0  0
   23.2210    9.8740   20.9950 C   0  0  0  0  0
   23.8860    9.3780   19.6540 C   0  0  0  0  0
   23.7080    7.8240   19.4250 C   0  0  0  0  0
   24.3160    7.5100   18.0670 C   0  0  0  0  0
   24.2960    6.9500   20.5220 C   0  0  0  0  0
   23.2870   11.6820   21.2020 P   0  0  0  0  0
   22.4380   12.2440   20.1120 O   0  0  0  0  0
   24.7330   12.0620   21.0820 O   0  5  0  0  0
   22.6230   12.0970   22.8160 C   0  0  0  0  0
   23.6070   11.9730   23.9730 C   0  0  0  0  0
   24.0020   10.8590   24.3690 O   0  0  0  0  0
   24.3280   13.1020   24.4460 O   0  0  0  0  0
   25.4700   12.9130   25.2580 C   0  0  0  0  0
   26.5940   13.7920   24.7560 C   0  0  0  0  0
 52  1  1  0  0  0
 53  2  1  0  0  0
 56  3  1  0  0  0
 57  4  1  0  0  0
 57  5  1  0  0  0
 57  6  1  0  0  0
 58  7  1  0  0  0
 58  8  1  0  0  0
 58  9  1  0  0  0
 59 10  1  0  0  0
 60 11  1  0  0  0
 63 12  1  0  0  0
 64 13  1  0  0  0
 64 14  1  0  0  0
 64 15  1  0  0  0
 65 16  1  0  0  0
 65 17  1  0  0  0
 65 18  1  0  0  0
 46 19  1  0  0  0
 46 20  1  0  0  0
 47 21  1  0  0  0
 48 22  1  0  0  0
 48 23  1  0  0  0
 48 24  1  0  0  0
 49 25  1  0  0  0
 49 26  1  0  0  0
 49 27  1  0  0  0
 66 28  1  0  0  0
 67 29  1  0  0  0
 68 30  1  0  0  0
 68 31  1  0  0  0
 69 32  1  0  0  0
 70 33  1  0  0  0
 70 34  1  0  0  0
 70 35  1  0  0  0
 71 36  1  0  0  0
 71 37  1  0  0  0
 71 38  1  0  0  0
 75 39  1  0  0  0
 75 40  1  0  0  0
 79 41  1  0  0  0
 79 42  1  0  0  0
 80 43  1  0  0  0
 80 44  1  0  0  0
 80 45  1  0  0  0
 53 52  1  0  0  0
 53 56  1  0  0  0
 54 53  1  0  0  0
 54 55  2  0  0  0
 56 58  1  0  0  0
 56 57  1  0  0  0
 60 59  1  0  0  0
 60 63  1  0  0  0
 61 60  1  0  0  0
 61 62  2  0  0  0
 63 65  1  0  0  0
 63 64  1  0  0  0
 59 54  1  0  0  0
 46 47  1  0  0  0
 50 46  1  0  0  0
 47 48  1  0  0  0
 47 49  1  0  0  0
 50 51  2  0  0  0
 52 50  1  0  0  0
 66 61  1  0  0  0
 67 66  1  0  0  0
 67 68  1  0  0  0
 72 67  1  0  0  0
 68 69  1  0  0  0
 69 70  1  0  0  0
 69 71  1  0  0  0
 72 73  2  0  0  0
 72 74  1  0  0  0
 75 72  1  0  0  0
 76 75  1  0  0  0
 76 77  2  0  0  0
 78 76  1  0  0  0
 79 78  1  0  0  0
 79 80  1  0  0  0
M  END
$$$$
