### 
### Created by X-TOOL on Mon Oct 24 22:39:26 2005
### 

@<TRIPOS>MOLECULE
1ppk_ligand
   80    79     1     0     0
SMALL
GAST_HUCK


@<TRIPOS>ATOM
      1 H521       17.7868    6.1404   17.6707 H         1 SUB1        0.188
      2 H531       19.0282    4.8470   20.1602 H         1 SUB1        0.080
      3 H561       21.2053    5.7715   19.1950 H         1 SUB1        0.034
      4 H571       20.3979    3.4302   18.6239 H         1 SUB1        0.023
      5 H572       21.2743    4.1690   17.2409 H         1 SUB1        0.023
      6 H573       19.4793    4.1021   17.2342 H         1 SUB1        0.023
      7 H581       19.3840    6.4069   16.7842 H         1 SUB1        0.023
      8 H582       21.1709    6.5830   16.8331 H         1 SUB1        0.023
      9 H583       20.1360    7.6416   17.8503 H         1 SUB1        0.023
     10 H591       20.3615    6.3557   21.4147 H         1 SUB1        0.188
     11 H601       19.2971    9.1638   21.3103 H         1 SUB1        0.080
     12 H631       19.7221    7.6504   23.9337 H         1 SUB1        0.034
     13 H641       20.1575   10.1217   24.0023 H         1 SUB1        0.023
     14 H642       18.6488    9.7166   24.8890 H         1 SUB1        0.023
     15 H643       18.5591   10.4249   23.2408 H         1 SUB1        0.023
     16 H651       17.1532    8.5743   22.5822 H         1 SUB1        0.023
     17 H652       17.2949    7.8370   24.2141 H         1 SUB1        0.023
     18 H653       17.6939    6.8699   22.7539 H         1 SUB1        0.023
     19 H461       15.6209    5.2185   17.1774 H         1 SUB1        0.051
     20 H462       16.2282    3.5473   16.9222 H         1 SUB1        0.051
     21 H471       14.9147    2.8134   18.9640 H         1 SUB1        0.032
     22 H481       13.4008    4.6571   19.8403 H         1 SUB1        0.023
     23 H482       14.0591    5.7691   18.5927 H         1 SUB1        0.023
     24 H483       15.1187    5.1763   19.9165 H         1 SUB1        0.023
     25 H491       13.6544    2.6978   16.8130 H         1 SUB1        0.023
     26 H492       13.3290    4.4623   16.8966 H         1 SUB1        0.023
     27 H493       12.5872    3.3541   18.1001 H         1 SUB1        0.023
     28 H661       21.2376    9.7411   20.2618 H         1 SUB1        0.186
     29 H671       23.7502    9.4066   21.8385 H         1 SUB1        0.062
     30 H681       24.9611    9.6081   19.6879 H         1 SUB1        0.029
     31 H682       23.4228    9.9133   18.8121 H         1 SUB1        0.029
     32 H691       22.6302    7.6079   19.3846 H         1 SUB1        0.030
     33 H701       24.2163    6.4342   17.8606 H         1 SUB1        0.023
     34 H702       25.3809    7.7857   18.0694 H         1 SUB1        0.023
     35 H703       23.7906    8.0829   17.2887 H         1 SUB1        0.023
     36 H711       23.8311    7.2079   21.4850 H         1 SUB1        0.023
     37 H712       25.3814    7.1178   20.5823 H         1 SUB1        0.023
     38 H713       24.1007    5.8921   20.2923 H         1 SUB1        0.023
     39 H751       21.7743   11.4268   23.0176 H         1 SUB1        0.058
     40 H752       22.2682   13.1376   22.7809 H         1 SUB1        0.058
     41 H791       25.7810   11.8588   25.2144 H         1 SUB1        0.061
     42 H792       25.2300   13.1818   26.2973 H         1 SUB1        0.061
     43 H801       27.4833   13.6460   25.3868 H         1 SUB1        0.025
     44 H802       26.2826   14.8461   24.7996 H         1 SUB1        0.025
     45 H803       26.8336   13.5231   23.7167 H         1 SUB1        0.025
     46 CA         15.8930    4.2760   17.6750 C.3       1 SUB1        0.040
     47 CB         14.6850    3.7270   18.3960 C.3       1 SUB1       -0.030
     48 CG1        14.2890    4.9130   19.2440 C.3       1 SUB1       -0.061
     49 CG2        13.4810    3.5480   17.4890 C.3       1 SUB1       -0.061
     50 C          17.0470    4.5420   18.6790 C.2       1 SUB1        0.178
     51 O          17.1330    3.7770   19.6530 O.2       1 SUB1       -0.397
     52 N          17.8940    5.5230   18.4500 N.am      1 SUB1       -0.265
     53 CA         19.0350    5.6660   19.4260 C.3       1 SUB1        0.133
     54 C          18.9010    6.9930   20.1440 C.2       1 SUB1        0.204
     55 O          18.1120    7.8900   19.6950 O.2       1 SUB1       -0.394
     56 CB         20.3170    5.6050   18.5680 C.3       1 SUB1       -0.006
     57 CG1        20.3710    4.2270   17.8660 C.3       1 SUB1       -0.058
     58 CG2        20.2470    6.6320   17.4280 C.3       1 SUB1       -0.058
     59 N          19.7610    7.1140   21.1610 N.am      1 SUB1       -0.264
     60 CA         19.8050    8.3850   21.8980 C.3       1 SUB1        0.133
     61 C          21.3340    8.7140   22.0180 C.2       1 SUB1        0.203
     62 O          21.9430    8.2540   22.9760 O.2       1 SUB1       -0.394
     63 CB         19.1490    8.3320   23.2880 C.3       1 SUB1       -0.006
     64 CG1        19.1270    9.7510   23.8990 C.3       1 SUB1       -0.058
     65 CG2        17.7290    7.8730   23.2040 C.3       1 SUB1       -0.058
     66 N          21.8380    9.4640   21.0120 N.am      1 SUB1       -0.276
     67 CA         23.2210    9.8740   20.9950 C.3       1 SUB1        0.080
     68 CB         23.8860    9.3780   19.6540 C.3       1 SUB1       -0.022
     69 CG         23.7080    7.8240   19.4250 C.3       1 SUB1       -0.044
     70 CD1        24.3160    7.5100   18.0670 C.3       1 SUB1       -0.063
     71 CD2        24.2960    6.9500   20.5220 C.3       1 SUB1       -0.063
     72 P          23.2870   11.6820   21.2020 P.3       1 SUB1        0.044
     73 OP         22.4380   12.2440   20.1120 O.co2     1 SUB1       -0.551
     74 OH         24.7330   12.0620   21.0820 O.co2     1 SUB1       -0.551
     75 CP         22.6230   12.0970   22.8160 C.3       1 SUB1        0.087
     76 C          23.6070   11.9730   23.9730 C.2       1 SUB1        0.239
     77 O          24.0020   10.8590   24.3690 O.2       1 SUB1       -0.370
     78 OXT        24.3280   13.1020   24.4460 O.3       1 SUB1       -0.277
     79 C1         25.4700   12.9130   25.2580 C.3       1 SUB1        0.074
     80 C2         26.5940   13.7920   24.7560 C.3       1 SUB1       -0.037
@<TRIPOS>BOND
     1   52    1 1  
     2   53    2 1  
     3   56    3 1  
     4   57    4 1  
     5   57    5 1  
     6   57    6 1  
     7   58    7 1  
     8   58    8 1  
     9   58    9 1  
    10   59   10 1  
    11   60   11 1  
    12   63   12 1  
    13   64   13 1  
    14   64   14 1  
    15   64   15 1  
    16   65   16 1  
    17   65   17 1  
    18   65   18 1  
    19   46   19 1  
    20   46   20 1  
    21   47   21 1  
    22   48   22 1  
    23   48   23 1  
    24   48   24 1  
    25   49   25 1  
    26   49   26 1  
    27   49   27 1  
    28   66   28 1  
    29   67   29 1  
    30   68   30 1  
    31   68   31 1  
    32   69   32 1  
    33   70   33 1  
    34   70   34 1  
    35   70   35 1  
    36   71   36 1  
    37   71   37 1  
    38   71   38 1  
    39   75   39 1  
    40   75   40 1  
    41   79   41 1  
    42   79   42 1  
    43   80   43 1  
    44   80   44 1  
    45   80   45 1  
    46   53   52 1  
    47   53   56 1  
    48   54   53 1  
    49   54   55 2  
    50   56   58 1  
    51   56   57 1  
    52   60   59 1  
    53   60   63 1  
    54   61   60 1  
    55   61   62 2  
    56   63   65 1  
    57   63   64 1  
    58   59   54 am 
    59   46   47 1  
    60   50   46 1  
    61   47   48 1  
    62   47   49 1  
    63   50   51 2  
    64   52   50 am 
    65   66   61 am 
    66   67   66 1  
    67   67   68 1  
    68   72   67 1  
    69   68   69 1  
    70   69   70 1  
    71   69   71 1  
    72   72   73 2  
    73   72   74 2  
    74   75   72 1  
    75   76   75 1  
    76   76   77 2  
    77   78   76 1  
    78   79   78 1  
    79   79   80 1  
@<TRIPOS>SUBSTRUCTURE
     1 SUB1        1 GROUP

