1gz9_ligand
  -I-interpret- 

 65 67  0  0  0  0  0  0  0  0999 V2000
   83.1934   38.4264   32.4644 H   0  0  0  0  0
   84.0580   39.0520   32.1980 C   0  0  0  0  0
   85.0580   38.2610   31.3190 C   0  0  0  0  0
   86.4940   38.8670   31.1370 C   0  0  0  0  0
   87.0350   39.4220   32.5010 C   0  0  0  0  0
   85.9920   40.3700   33.1510 C   0  0  0  0  0
   86.4830   40.9540   34.5360 C   0  0  0  0  0
   83.6990   40.1630   31.3960 O   0  0  0  0  0
   84.4080   37.6720   30.1660 O   0  0  0  0  0
   87.3460   37.8350   30.6590 O   0  0  0  0  0
   87.3050   38.3430   33.3820 O   0  0  0  0  0
   84.6700   39.6390   33.4120 O   0  0  0  0  0
   82.7760   42.1810   30.7350 C   0  0  0  0  0
   82.5960   41.0400   31.6660 C   0  0  0  0  0
   81.2000   40.3830   31.2130 C   0  0  0  0  0
   80.0820   41.4300   31.3420 C   0  0  0  0  0
   80.4740   42.6120   30.4080 C   0  0  0  0  0
   79.4910   43.7340   30.4520 C   0  0  0  0  0
   84.0330   42.8220   31.1550 O   0  0  0  0  0
   80.9290   39.2470   32.0890 O   0  0  0  0  0
   79.9590   41.9390   32.6690 O   0  0  0  0  0
   81.7370   43.1500   30.8260 O   0  0  0  0  0
   79.9240   44.6680   29.4540 O   0  0  0  0  0
   86.6530   45.9390   30.0400 C   0  0  0  0  0
   85.1640   46.3050   29.9110 C   0  0  0  0  0
   84.3530   45.2680   30.7370 C   0  0  0  0  0
   84.6490   43.8440   30.2510 C   0  0  0  0  0
   86.1590   43.5440   30.2680 C   0  0  0  0  0
   86.5000   42.2210   29.5840 C   0  0  0  0  0
   87.3940   46.8460   29.2860 O   0  0  0  0  0
   84.8880   47.5970   30.4290 O   0  0  0  0  0
   82.9840   45.5800   30.6260 O   0  0  0  0  0
   86.8610   44.5770   29.5060 O   0  0  0  0  0
   87.7560   41.7210   30.0700 O   0  0  0  0  0
   85.2753   37.3798   31.9405 H   0  0  0  0  0
   86.4576   39.6861   30.4037 H   0  0  0  0  0
   87.9643   39.9813   32.3176 H   0  0  0  0  0
   85.8115   41.2048   32.4579 H   0  0  0  0  0
   85.7083   41.6162   34.9500 H   0  0  0  0  0
   87.4110   41.5250   34.3849 H   0  0  0  0  0
   86.6712   40.1271   35.2366 H   0  0  0  0  0
   84.0219   38.3594   29.6360 H   0  0  0  0  0
   87.3657   37.1247   31.2895 H   0  0  0  0  0
   87.9573   37.7729   32.9921 H   0  0  0  0  0
   82.8451   41.8148   29.7001 H   0  0  0  0  0
   82.5757   41.3470   32.7221 H   0  0  0  0  0
   81.2662   40.0414   30.1695 H   0  0  0  0  0
   79.1237   40.9899   31.0290 H   0  0  0  0  0
   80.5493   42.2370   29.3767 H   0  0  0  0  0
   79.4921   44.2062   31.4455 H   0  0  0  0  0
   78.4799   43.3674   30.2213 H   0  0  0  0  0
   80.8734   39.5482   32.9882 H   0  0  0  0  0
   80.7759   42.3500   32.9263 H   0  0  0  0  0
   80.8011   44.9680   29.6619 H   0  0  0  0  0
   86.9638   45.9809   31.0943 H   0  0  0  0  0
   84.8668   46.2652   28.8527 H   0  0  0  0  0
   84.6485   45.3423   31.7940 H   0  0  0  0  0
   84.2551   43.7295   29.2303 H   0  0  0  0  0
   86.5118   43.5268   31.3097 H   0  0  0  0  0
   86.5682   42.3804   28.4978 H   0  0  0  0  0
   85.7093   41.4868   29.7980 H   0  0  0  0  0
   87.2618   47.7225   29.6275 H   0  0  0  0  0
   83.9578   47.7747   30.3545 H   0  0  0  0  0
   82.4781   44.9719   31.1521 H   0  0  0  0  0
   87.9569   40.8992   29.6379 H   0  0  0  0  0
  8  2  1  0  0  0
  2 12  1  0  0  0
  2  3  1  0  0  0
  3  9  1  0  0  0
  3  4  1  0  0  0
  4 10  1  0  0  0
  4  5  1  0  0  0
  5 11  1  0  0  0
  6  5  1  0  0  0
 12  6  1  0  0  0
  6  7  1  0  0  0
 13 22  1  0  0  0
 14 13  1  0  0  0
 13 19  1  0  0  0
 19 27  1  0  0  0
 27 28  1  0  0  0
 27 26  1  0  0  0
 26 32  1  0  0  0
 26 25  1  0  0  0
 25 31  1  0  0  0
 25 24  1  0  0  0
 33 24  1  0  0  0
 24 30  1  0  0  0
 28 33  1  0  0  0
 28 29  1  0  0  0
 29 34  1  0  0  0
 14 15  1  0  0  0
 15 20  1  0  0  0
 15 16  1  0  0  0
 16 21  1  0  0  0
 16 17  1  0  0  0
 22 17  1  0  0  0
 17 18  1  0  0  0
 18 23  1  0  0  0
 14  8  1  0  0  0
  2  1  1  0  0  0
  3 35  1  0  0  0
  4 36  1  0  0  0
  5 37  1  0  0  0
  6 38  1  0  0  0
  7 39  1  0  0  0
  7 40  1  0  0  0
  7 41  1  0  0  0
  9 42  1  0  0  0
 10 43  1  0  0  0
 11 44  1  0  0  0
 13 45  1  0  0  0
 14 46  1  0  0  0
 15 47  1  0  0  0
 16 48  1  0  0  0
 17 49  1  0  0  0
 18 50  1  0  0  0
 18 51  1  0  0  0
 20 52  1  0  0  0
 21 53  1  0  0  0
 23 54  1  0  0  0
 24 55  1  0  0  0
 25 56  1  0  0  0
 26 57  1  0  0  0
 27 58  1  0  0  0
 28 59  1  0  0  0
 29 60  1  0  0  0
 29 61  1  0  0  0
 30 62  1  0  0  0
 31 63  1  0  0  0
 32 64  1  0  0  0
 34 65  1  0  0  0
M  END
$$$$
