### 
### Created by X-TOOL on Mon Oct 24 22:30:24 2005
### 

@<TRIPOS>MOLECULE
1gz9_ligand
   65    67     1     0     0
SMALL
GAST_HUCK


@<TRIPOS>ATOM
      1 H21        83.1934   38.4264   32.4644 H         1 SUB1        0.094
      2 C1         84.0580   39.0520   32.1980 C.3       1 SUB1        0.188
      3 C2         85.0580   38.2610   31.3190 C.3       1 SUB1        0.134
      4 C3         86.4940   38.8670   31.1370 C.3       1 SUB1        0.114
      5 C4         87.0350   39.4220   32.5010 C.3       1 SUB1        0.109
      6 C5         85.9920   40.3700   33.1510 C.3       1 SUB1        0.087
      7 C6         86.4830   40.9540   34.5360 C.3       1 SUB1       -0.036
      8 O1         83.6990   40.1630   31.3960 O.3       1 SUB1       -0.338
      9 O2         84.4080   37.6720   30.1660 O.3       1 SUB1       -0.384
     10 O3         87.3460   37.8350   30.6590 O.3       1 SUB1       -0.386
     11 O4         87.3050   38.3430   33.3820 O.3       1 SUB1       -0.387
     12 O5         84.6700   39.6390   33.4120 O.3       1 SUB1       -0.343
     13 C1         82.7760   42.1810   30.7350 C.3       1 SUB1        0.189
     14 C2         82.5960   41.0400   31.6660 C.3       1 SUB1        0.141
     15 C3         81.2000   40.3830   31.2130 C.3       1 SUB1        0.114
     16 C4         80.0820   41.4300   31.3420 C.3       1 SUB1        0.112
     17 C5         80.4740   42.6120   30.4080 C.3       1 SUB1        0.113
     18 C6         79.4910   43.7340   30.4520 C.3       1 SUB1        0.073
     19 O1         84.0330   42.8220   31.1550 O.3       1 SUB1       -0.340
     20 O3         80.9290   39.2470   32.0890 O.3       1 SUB1       -0.386
     21 O4         79.9590   41.9390   32.6690 O.3       1 SUB1       -0.387
     22 O5         81.7370   43.1500   30.8260 O.3       1 SUB1       -0.340
     23 O6         79.9240   44.6680   29.4540 O.3       1 SUB1       -0.392
     24 C1'        86.6530   45.9390   30.0400 C.3       1 SUB1        0.185
     25 C2'        85.1640   46.3050   29.9110 C.3       1 SUB1        0.134
     26 C3'        84.3530   45.2680   30.7370 C.3       1 SUB1        0.114
     27 C4'        84.6490   43.8440   30.2510 C.3       1 SUB1        0.118
     28 C5'        86.1590   43.5440   30.2680 C.3       1 SUB1        0.113
     29 C6'        86.5000   42.2210   29.5840 C.3       1 SUB1        0.073
     30 O1'        87.3940   46.8460   29.2860 O.3       1 SUB1       -0.365
     31 O2'        84.8880   47.5970   30.4290 O.3       1 SUB1       -0.384
     32 O3'        82.9840   45.5800   30.6260 O.3       1 SUB1       -0.386
     33 O5'        86.8610   44.5770   29.5060 O.3       1 SUB1       -0.341
     34 O6'        87.7560   41.7210   30.0700 O.3       1 SUB1       -0.392
     35 H31        85.2753   37.3798   31.9405 H         1 SUB1        0.067
     36 H41        86.4576   39.6861   30.4037 H         1 SUB1        0.065
     37 H51        87.9643   39.9813   32.3176 H         1 SUB1        0.065
     38 H61        85.8115   41.2048   32.4579 H         1 SUB1        0.062
     39 H71        85.7083   41.6162   34.9500 H         1 SUB1        0.025
     40 H72        87.4110   41.5250   34.3849 H         1 SUB1        0.025
     41 H73        86.6712   40.1271   35.2366 H         1 SUB1        0.025
     42 H91        84.0219   38.3594   29.6360 H         1 SUB1        0.210
     43 H101       87.3657   37.1247   31.2895 H         1 SUB1        0.210
     44 H111       87.9573   37.7729   32.9921 H         1 SUB1        0.210
     45 H131       82.8451   41.8148   29.7001 H         1 SUB1        0.094
     46 H141       82.5757   41.3470   32.7221 H         1 SUB1        0.068
     47 H151       81.2662   40.0414   30.1695 H         1 SUB1        0.065
     48 H161       79.1237   40.9899   31.0290 H         1 SUB1        0.065
     49 H171       80.5493   42.2370   29.3767 H         1 SUB1        0.065
     50 H181       79.4921   44.2062   31.4455 H         1 SUB1        0.058
     51 H182       78.4799   43.3674   30.2213 H         1 SUB1        0.058
     52 H201       80.8734   39.5482   32.9882 H         1 SUB1        0.210
     53 H211       80.7759   42.3500   32.9263 H         1 SUB1        0.210
     54 H231       80.8011   44.9680   29.6619 H         1 SUB1        0.209
     55 H241       86.9638   45.9809   31.0943 H         1 SUB1        0.094
     56 H251       84.8668   46.2652   28.8527 H         1 SUB1        0.067
     57 H261       84.6485   45.3423   31.7940 H         1 SUB1        0.065
     58 H271       84.2551   43.7295   29.2303 H         1 SUB1        0.065
     59 H281       86.5118   43.5268   31.3097 H         1 SUB1        0.065
     60 H291       86.5682   42.3804   28.4978 H         1 SUB1        0.058
     61 H292       85.7093   41.4868   29.7980 H         1 SUB1        0.058
     62 H301       87.2618   47.7225   29.6275 H         1 SUB1        0.213
     63 H311       83.9578   47.7747   30.3545 H         1 SUB1        0.210
     64 H321       82.4781   44.9719   31.1521 H         1 SUB1        0.210
     65 H341       87.9569   40.8992   29.6379 H         1 SUB1        0.209
@<TRIPOS>BOND
     1    8    2 1  
     2    2   12 1  
     3    2    3 1  
     4    3    9 1  
     5    3    4 1  
     6    4   10 1  
     7    4    5 1  
     8    5   11 1  
     9    6    5 1  
    10   12    6 1  
    11    6    7 1  
    12   13   22 1  
    13   14   13 1  
    14   13   19 1  
    15   19   27 1  
    16   27   28 1  
    17   27   26 1  
    18   26   32 1  
    19   26   25 1  
    20   25   31 1  
    21   25   24 1  
    22   33   24 1  
    23   24   30 1  
    24   28   33 1  
    25   28   29 1  
    26   29   34 1  
    27   14   15 1  
    28   15   20 1  
    29   15   16 1  
    30   16   21 1  
    31   16   17 1  
    32   22   17 1  
    33   17   18 1  
    34   18   23 1  
    35   14    8 1  
    36    2    1 1  
    37    3   35 1  
    38    4   36 1  
    39    5   37 1  
    40    6   38 1  
    41    7   39 1  
    42    7   40 1  
    43    7   41 1  
    44    9   42 1  
    45   10   43 1  
    46   11   44 1  
    47   13   45 1  
    48   14   46 1  
    49   15   47 1  
    50   16   48 1  
    51   17   49 1  
    52   18   50 1  
    53   18   51 1  
    54   20   52 1  
    55   21   53 1  
    56   23   54 1  
    57   24   55 1  
    58   25   56 1  
    59   26   57 1  
    60   27   58 1  
    61   28   59 1  
    62   29   60 1  
    63   29   61 1  
    64   30   62 1  
    65   31   63 1  
    66   32   64 1  
    67   34   65 1  
@<TRIPOS>SUBSTRUCTURE
     1 SUB1        1 GROUP

