### 
### Created by X-TOOL on Tue Oct 25 00:58:57 2005
### 

@<TRIPOS>MOLECULE
1nw7_ligand
   46    48     1     0     0
SMALL
GAST_HUCK


@<TRIPOS>ATOM
      1 N          32.1050   21.0830    2.2810 N.4       1 SUB1        0.238
      2 CA         32.7850   20.0740    1.4480 C.3       1 SUB1        0.016
      3 CB         31.9580   19.8100    0.1710 C.3       1 SUB1        0.011
      4 CG         31.6500   21.0980   -0.6090 C.3       1 SUB1        0.002
      5 SD         30.6180   20.8150   -2.1010 S.3       1 SUB1       -0.158
      6 C          34.2000   20.5660    1.0980 C.2       1 SUB1        0.076
      7 O          34.4940   21.7350    1.4270 O.co2     1 SUB1       -0.561
      8 OXT        34.9560   19.7570    0.5160 O.co2     1 SUB1       -0.561
      9 C5'        29.9130   22.4910   -2.2940 C.3       1 SUB1        0.023
     10 C4'        28.7790   22.5530   -3.3240 C.3       1 SUB1        0.100
     11 O4'        28.1780   23.8750   -3.2700 O.3       1 SUB1       -0.338
     12 C3'        29.2820   22.3550   -4.7600 C.3       1 SUB1        0.113
     13 O3'        28.4320   21.4190   -5.4340 O.3       1 SUB1       -0.386
     14 C2'        29.1710   23.7270   -5.4020 C.3       1 SUB1        0.139
     15 O2'        28.7690   23.5900   -6.7710 O.3       1 SUB1       -0.384
     16 C1'        28.0440   24.3860   -4.6220 C.3       1 SUB1        0.201
     17 N9         28.0850   25.8850   -4.6170 N.pl3     1 SUB1       -0.192
     18 C8         29.1840   26.6590   -4.5410 C.2       1 SUB1        0.112
     19 N7         28.8160   27.9420   -4.4650 N.2       1 SUB1       -0.296
     20 C5         27.4860   27.9840   -4.4980 C.ar      1 SUB1        0.105
     21 C6         26.5480   29.0200   -4.4490 C.ar      1 SUB1        0.130
     22 N6         26.9470   30.2940   -4.3680 N.pl3     1 SUB1       -0.315
     23 N1         25.2240   28.7190   -4.5010 N.ar      1 SUB1       -0.270
     24 C2         24.8080   27.4470   -4.6010 C.ar      1 SUB1        0.053
     25 N3         25.6890   26.4410   -4.6500 N.ar      1 SUB1       -0.271
     26 C4         27.0230   26.6820   -4.5990 C.ar      1 SUB1        0.161
     27 H11        31.1794   20.7532    2.5057 H         1 SUB1        0.202
     28 H12        32.6191   21.2258    3.1362 H         1 SUB1        0.202
     29 H13        32.0301   21.9520    1.7758 H         1 SUB1        0.202
     30 H21        32.8812   19.1364    2.0150 H         1 SUB1        0.107
     31 H31        32.5234   19.1369   -0.4902 H         1 SUB1        0.036
     32 H32        31.0022   19.3438    0.4521 H         1 SUB1        0.036
     33 H41        31.1083   21.7922    0.0503 H         1 SUB1        0.038
     34 H42        32.5976   21.5521   -0.9343 H         1 SUB1        0.038
     35 H91        29.5099   22.8218   -1.3255 H         1 SUB1        0.040
     36 H92        30.7079   23.1763   -2.6232 H         1 SUB1        0.040
     37 H101       28.0331   21.7765   -3.0990 H         1 SUB1        0.063
     38 H121       30.3261   22.0095   -4.7789 H         1 SUB1        0.065
     39 H131       28.7419   21.2951   -6.3234 H         1 SUB1        0.210
     40 H141       30.1047   24.3025   -5.3185 H         1 SUB1        0.068
     41 H151       27.9255   23.1547   -6.8101 H         1 SUB1        0.210
     42 H161       27.0763   24.0865   -5.0506 H         1 SUB1        0.100
     43 H181       30.2111   26.2969   -4.5414 H         1 SUB1        0.135
     44 H221       26.2493   31.0509   -4.3324 H         1 SUB1        0.182
     45 H222       27.9519   30.5182   -4.3413 H         1 SUB1        0.182
     46 H241       23.7463   27.2321   -4.6425 H         1 SUB1        0.100
@<TRIPOS>BOND
     1    1    2 1  
     2    2    3 1  
     3    2    6 1  
     4    3    4 1  
     5    4    5 1  
     6    5    9 1  
     7    6    7 2  
     8    6    8 2  
     9    9   10 1  
    10   10   11 1  
    11   10   12 1  
    12   11   16 1  
    13   12   13 1  
    14   12   14 1  
    15   14   15 1  
    16   14   16 1  
    17   16   17 1  
    18   17   18 1  
    19   17   26 1  
    20   18   19 2  
    21   19   20 1  
    22   20   21 ar 
    23   20   26 ar 
    24   21   22 1  
    25   21   23 ar 
    26   23   24 ar 
    27   24   25 ar 
    28   25   26 ar 
    29    1   27 1  
    30    1   28 1  
    31    1   29 1  
    32    2   30 1  
    33    3   31 1  
    34    3   32 1  
    35    4   33 1  
    36    4   34 1  
    37    9   35 1  
    38    9   36 1  
    39   10   37 1  
    40   12   38 1  
    41   13   39 1  
    42   14   40 1  
    43   15   41 1  
    44   16   42 1  
    45   18   43 1  
    46   22   44 1  
    47   22   45 1  
    48   24   46 1  
@<TRIPOS>SUBSTRUCTURE
     1 SUB1        1 GROUP

