1nw7_ligand
  -I-interpret- 

 46 48  0  0  0  0  0  0  0  0999 V2000
   32.1050   21.0830    2.2810 N   0  3  0  0  0
   32.7850   20.0740    1.4480 C   0  0  0  0  0
   31.9580   19.8100    0.1710 C   0  0  0  0  0
   31.6500   21.0980   -0.6090 C   0  0  0  0  0
   30.6180   20.8150   -2.1010 S   0  0  0  0  0
   34.2000   20.5660    1.0980 C   0  0  0  0  0
   34.4940   21.7350    1.4270 O   0  0  0  0  0
   34.9560   19.7570    0.5160 O   0  5  0  0  0
   29.9130   22.4910   -2.2940 C   0  0  0  0  0
   28.7790   22.5530   -3.3240 C   0  0  0  0  0
   28.1780   23.8750   -3.2700 O   0  0  0  0  0
   29.2820   22.3550   -4.7600 C   0  0  0  0  0
   28.4320   21.4190   -5.4340 O   0  0  0  0  0
   29.1710   23.7270   -5.4020 C   0  0  0  0  0
   28.7690   23.5900   -6.7710 O   0  0  0  0  0
   28.0440   24.3860   -4.6220 C   0  0  0  0  0
   28.0850   25.8850   -4.6170 N   0  0  0  0  0
   29.1840   26.6590   -4.5410 C   0  0  0  0  0
   28.8160   27.9420   -4.4650 N   0  0  0  0  0
   27.4860   27.9840   -4.4980 C   0  0  0  0  0
   26.5480   29.0200   -4.4490 C   0  0  0  0  0
   26.9470   30.2940   -4.3680 N   0  0  0  0  0
   25.2240   28.7190   -4.5010 N   0  0  0  0  0
   24.8080   27.4470   -4.6010 C   0  0  0  0  0
   25.6890   26.4410   -4.6500 N   0  0  0  0  0
   27.0230   26.6820   -4.5990 C   0  0  0  0  0
   31.1794   20.7532    2.5057 H   0  0  0  0  0
   32.6191   21.2258    3.1362 H   0  0  0  0  0
   32.0301   21.9520    1.7758 H   0  0  0  0  0
   32.8812   19.1364    2.0150 H   0  0  0  0  0
   32.5234   19.1369   -0.4902 H   0  0  0  0  0
   31.0022   19.3438    0.4521 H   0  0  0  0  0
   31.1083   21.7922    0.0503 H   0  0  0  0  0
   32.5976   21.5521   -0.9343 H   0  0  0  0  0
   29.5099   22.8218   -1.3255 H   0  0  0  0  0
   30.7079   23.1763   -2.6232 H   0  0  0  0  0
   28.0331   21.7765   -3.0990 H   0  0  0  0  0
   30.3261   22.0095   -4.7789 H   0  0  0  0  0
   28.7419   21.2951   -6.3234 H   0  0  0  0  0
   30.1047   24.3025   -5.3185 H   0  0  0  0  0
   27.9255   23.1547   -6.8101 H   0  0  0  0  0
   27.0763   24.0865   -5.0506 H   0  0  0  0  0
   30.2111   26.2969   -4.5414 H   0  0  0  0  0
   26.2493   31.0509   -4.3324 H   0  0  0  0  0
   27.9519   30.5182   -4.3413 H   0  0  0  0  0
   23.7463   27.2321   -4.6425 H   0  0  0  0  0
  1  2  1  0  0  0
  2  3  1  0  0  0
  2  6  1  0  0  0
  3  4  1  0  0  0
  4  5  1  0  0  0
  5  9  1  0  0  0
  6  7  2  0  0  0
  6  8  1  0  0  0
  9 10  1  0  0  0
 10 11  1  0  0  0
 10 12  1  0  0  0
 11 16  1  0  0  0
 12 13  1  0  0  0
 12 14  1  0  0  0
 14 15  1  0  0  0
 14 16  1  0  0  0
 16 17  1  0  0  0
 17 18  1  0  0  0
 17 26  1  0  0  0
 18 19  2  0  0  0
 19 20  1  0  0  0
 20 21  4  0  0  0
 20 26  4  0  0  0
 21 22  1  0  0  0
 21 23  4  0  0  0
 23 24  4  0  0  0
 24 25  4  0  0  0
 25 26  4  0  0  0
  1 27  1  0  0  0
  1 28  1  0  0  0
  1 29  1  0  0  0
  2 30  1  0  0  0
  3 31  1  0  0  0
  3 32  1  0  0  0
  4 33  1  0  0  0
  4 34  1  0  0  0
  9 35  1  0  0  0
  9 36  1  0  0  0
 10 37  1  0  0  0
 12 38  1  0  0  0
 13 39  1  0  0  0
 14 40  1  0  0  0
 15 41  1  0  0  0
 16 42  1  0  0  0
 18 43  1  0  0  0
 22 44  1  0  0  0
 22 45  1  0  0  0
 24 46  1  0  0  0
M  END
$$$$
