### 
### Created by X-TOOL on Mon Oct 24 21:59:29 2005
### 

@<TRIPOS>MOLECULE
1o33_ligand
   31    33     1     0     0
SMALL
GAST_HUCK


@<TRIPOS>ATOM
      1 C1         44.0750   -3.0370   26.3070 C.ar      1 SUB1        0.172
      2 C2         44.5310   -1.7030   26.3610 C.ar      1 SUB1       -0.020
      3 C3         44.4530   -0.9550   27.5220 C.ar      1 SUB1       -0.035
      4 C4         43.9220   -1.5510   28.6160 C.ar      1 SUB1        0.083
      5 C5         43.4640   -2.8170   28.6130 C.ar      1 SUB1        0.038
      6 C6         43.5210   -3.6060   27.4640 C.ar      1 SUB1       -0.006
      7 C7         44.1930   -3.7660   25.1090 C.cat     1 SUB1        0.310
      8 N1         43.9180   -5.0580   25.1100 N.pl3     1 SUB1       -0.201
      9 N2         44.5810   -3.1240   24.0140 N.pl3     1 SUB1       -0.201
     10 N3         43.7360   -1.1060   29.8050 N.pl3     1 SUB1       -0.249
     11 N4         42.9940   -3.1730   29.7830 N.2       1 SUB1       -0.304
     12 C8         43.2020   -2.0660   30.4840 C.2       1 SUB1        0.155
     13 C1'        42.9290   -1.9290   31.8370 C.ar      1 SUB1        0.135
     14 N2'        42.6890   -3.0300   32.5210 N.ar      1 SUB1       -0.291
     15 C3'        42.4260   -3.0450   33.8060 C.ar      1 SUB1        0.004
     16 C4'        42.3880   -1.8530   34.5100 C.ar      1 SUB1       -0.039
     17 C5'        42.6370   -0.6510   33.8370 C.ar      1 SUB1       -0.008
     18 C6'        42.9150   -0.6710   32.4720 C.ar      1 SUB1        0.136
     19 O6'        43.1600    0.5190   31.7860 O.3       1 SUB1       -0.319
     20 H21        44.9610   -1.2320   25.4940 H         1 SUB1        0.059
     21 H31        44.8000    0.0630   27.5690 H         1 SUB1        0.055
     22 H61        43.1530   -4.6190   27.4730 H         1 SUB1        0.060
     23 H81        43.6420   -5.4960   25.9850 H         1 SUB1        0.192
     24 H82        43.9600   -5.6690   24.3270 H         1 SUB1        0.192
     25 H91        44.7660   -2.1350   24.0450 H         1 SUB1        0.192
     26 H92        44.7210   -3.5700   23.1370 H         1 SUB1        0.192
     27 H101       43.9380   -0.2290   30.2010 H         1 SUB1        0.230
     28 H151       42.4240   -3.9850   34.3420 H         1 SUB1        0.075
     29 H161       42.1710   -1.8620   35.5690 H         1 SUB1        0.071
     30 H171       42.6120    0.2830   34.3810 H         1 SUB1        0.067
     31 H191       43.3306    0.3267   30.8715 H         1 SUB1        0.254
@<TRIPOS>BOND
     1    1    2 ar 
     2    1    6 ar 
     3    1    7 1  
     4    2    3 ar 
     5    2   20 1  
     6    3    4 ar 
     7    3   21 1  
     8    4    5 ar 
     9    4   10 1  
    10    5    6 ar 
    11    5   11 1  
    12    6   22 1  
    13    7    8 1  
    14    7    9 1  
    15    8   23 1  
    16    8   24 1  
    17    9   25 1  
    18    9   26 1  
    19   10   12 1  
    20   10   27 1  
    21   11   12 2  
    22   12   13 1  
    23   13   14 ar 
    24   13   18 ar 
    25   14   15 ar 
    26   15   16 ar 
    27   15   28 1  
    28   16   17 ar 
    29   16   29 1  
    30   17   18 ar 
    31   17   30 1  
    32   18   19 1  
    33   19   31 1  
@<TRIPOS>SUBSTRUCTURE
     1 SUB1        1 GROUP

