### 
### Created by X-TOOL on Sun Jun  3 11:24:36 2007
### 

@<TRIPOS>MOLECULE
2fzz_ligand
   70    76     1     0     0
SMALL
GAST_HUCK


@<TRIPOS>ATOM
      1 F          25.8170   26.3860   63.4850 F         1 SUB1       -0.223
      2 F1         25.6410   27.7750   65.1970 F         1 SUB1       -0.223
      3 F2         25.0350   25.6540   65.4070 F         1 SUB1       -0.223
      4 O3         16.2800   27.6280   65.7490 O.3       1 SUB1       -0.191
      5 O1         20.3600   28.9070   61.6560 O.2       1 SUB1       -0.378
      6 N          16.3940   28.4640   66.7810 N.2       1 SUB1       -0.148
      7 N1         18.2730   29.6520   67.7210 N.pl3     1 SUB1       -0.331
      8 N2         21.5750   27.4090   63.8500 N.pl3     1 SUB1       -0.123
      9 N3         22.5580   26.7890   64.5770 N.2       1 SUB1       -0.140
     10 N4         22.3870   29.9110   61.3100 N.am      1 SUB1       -0.216
     11 C          17.4480   27.4180   65.1380 C.ar      1 SUB1        0.148
     12 C1         18.4640   28.1970   65.8180 C.ar      1 SUB1        0.049
     13 C2         17.7070   28.8230   66.8430 C.2       1 SUB1        0.124
     14 C3         17.8530   26.5840   63.9850 C.ar      1 SUB1       -0.023
     15 C4         19.2640   26.5570   63.5280 C.ar      1 SUB1       -0.024
     16 C5         20.2650   27.3800   64.2360 C.ar      1 SUB1        0.121
     17 C6         19.8650   28.2020   65.3930 C.ar      1 SUB1       -0.016
     18 C7         23.7580   27.1160   64.0630 C.2       1 SUB1        0.129
     19 C8         23.5290   27.9660   62.9730 C.2       1 SUB1        0.024
     20 C9         22.1510   28.1450   62.8540 C.2       1 SUB1        0.199
     21 C10        25.1310   26.7090   64.5610 C.3       1 SUB1        0.382
     22 C13        21.5590   28.9940   61.9140 C.2       1 SUB1        0.260
     23 C14        21.9050   30.7520   60.3440 C.ar      1 SUB1        0.070
     24 C15        22.0090   32.1730   60.6140 C.ar      1 SUB1       -0.040
     25 C16        21.4020   33.1150   59.6950 C.ar      1 SUB1       -0.068
     26 C17        20.6900   32.6280   58.4980 C.ar      1 SUB1       -0.035
     27 C18        20.6350   31.1850   58.2150 C.ar      1 SUB1       -0.068
     28 C19        21.2470   30.2330   59.1380 C.ar      1 SUB1       -0.040
     29 C24        19.9970   33.6230   57.5700 C.ar      1 SUB1       -0.023
     30 C25        20.2620   33.7280   56.1330 C.ar      1 SUB1       -0.023
     31 C11        21.3210   32.8530   55.4260 C.3       1 SUB1        0.033
     32 N7         22.4710   33.6470   54.9410 N.3       1 SUB1       -0.289
     33 C20        23.5700   32.9920   54.1820 C.3       1 SUB1        0.004
     34 C23        23.0880   34.4430   56.0250 C.3       1 SUB1        0.027
     35 C12        18.9480   34.5120   58.1070 C.ar      1 SUB1       -0.064
     36 C21        18.2420   35.4380   57.2250 C.ar      1 SUB1       -0.070
     37 C22        19.5360   34.6760   55.2550 C.ar      1 SUB1       -0.060
     38 C26        18.5230   35.5560   55.8080 C.ar      1 SUB1       -0.070
     39 C27        24.4880   33.8480   56.0850 C.3       1 SUB1        0.069
     40 C28        24.8140   33.7950   54.5920 C.3       1 SUB1       -0.013
     41 O2         25.2570   34.7170   56.7070 O.3       1 SUB1       -0.391
     42 C29        23.8010   30.0250   61.7500 C.3       1 SUB1        0.064
     43 C31        24.4750   28.6630   62.0280 C.3       1 SUB1        0.008
     44 H          17.7059   30.0921   68.4457 H         1 SUB1        0.170
     45 H          19.2730   29.8459   67.6679 H         1 SUB1        0.170
     46 H          17.1065   25.9829   63.4658 H         1 SUB1        0.057
     47 H          19.5581   25.9377   62.6806 H         1 SUB1        0.060
     48 H          20.6017   28.8046   65.9242 H         1 SUB1        0.060
     49 H          22.5378   32.5286   61.4983 H         1 SUB1        0.051
     50 H          21.4716   34.1854   59.8885 H         1 SUB1        0.058
     51 H          20.1365   30.8259   57.3146 H         1 SUB1        0.058
     52 H          21.2161   29.1622   58.9365 H         1 SUB1        0.051
     53 H          20.8490   32.3799   54.5649 H         1 SUB1        0.059
     54 H          21.6927   32.1237   56.1457 H         1 SUB1        0.059
     55 H          23.4002   33.0039   53.1054 H         1 SUB1        0.043
     56 H          23.6625   31.9305   54.4116 H         1 SUB1        0.043
     57 H          22.5487   34.3821   56.9703 H         1 SUB1        0.045
     58 H          23.0794   35.5163   55.8353 H         1 SUB1        0.045
     59 H          18.6988   34.4773   59.1676 H         1 SUB1        0.058
     60 H          17.4655   36.0715   57.6537 H         1 SUB1        0.056
     61 H          19.7638   34.7124   54.1897 H         1 SUB1        0.055
     62 H          17.9950   36.2763   55.1831 H         1 SUB1        0.058
     63 H          24.6031   32.8922   56.5961 H         1 SUB1        0.061
     64 H          24.9630   34.7518   54.0916 H         1 SUB1        0.030
     65 H          25.7799   33.3701   54.3190 H         1 SUB1        0.030
     66 H          25.0325   34.7308   57.6403 H         1 SUB1        0.210
     67 H          23.8082   30.5892   62.6826 H         1 SUB1        0.061
     68 H          24.3559   30.5054   60.9442 H         1 SUB1        0.061
     69 H          24.6379   28.0914   61.1143 H         1 SUB1        0.045
     70 H          25.4714   28.7775   62.4547 H         1 SUB1        0.045
@<TRIPOS>BOND
     1   21    1 1  
     2   21    2 1  
     3   21    3 1  
     4    6    4 1  
     5   11    4 1  
     6   22    5 2  
     7   13    6 2  
     8   13    7 1  
     9    8    9 1  
    10    8   16 1  
    11   20    8 1  
    12   18    9 2  
    13   22   10 am 
    14   10   23 1  
    15   10   42 1  
    16   12   11 ar 
    17   14   11 ar 
    18   12   13 1  
    19   17   12 ar 
    20   15   14 ar 
    21   16   15 ar 
    22   16   17 ar 
    23   19   18 1  
    24   18   21 1  
    25   20   19 2  
    26   19   43 1  
    27   20   22 1  
    28   23   24 ar 
    29   23   28 ar 
    30   24   25 ar 
    31   25   26 ar 
    32   26   27 ar 
    33   26   29 1  
    34   27   28 ar 
    35   29   30 ar 
    36   29   35 ar 
    37   30   31 1  
    38   30   37 ar 
    39   31   32 1  
    40   32   33 1  
    41   32   34 1  
    42   33   40 1  
    43   34   39 1  
    44   35   36 ar 
    45   36   38 ar 
    46   37   38 ar 
    47   39   40 1  
    48   39   41 1  
    49   42   43 1  
    50    7   44 1  
    51    7   45 1  
    52   14   46 1  
    53   15   47 1  
    54   17   48 1  
    55   24   49 1  
    56   25   50 1  
    57   27   51 1  
    58   28   52 1  
    59   31   53 1  
    60   31   54 1  
    61   33   55 1  
    62   33   56 1  
    63   34   57 1  
    64   34   58 1  
    65   35   59 1  
    66   36   60 1  
    67   37   61 1  
    68   38   62 1  
    69   39   63 1  
    70   40   64 1  
    71   40   65 1  
    72   41   66 1  
    73   42   67 1  
    74   42   68 1  
    75   43   69 1  
    76   43   70 1  
@<TRIPOS>SUBSTRUCTURE
     1 SUB1        1 GROUP

