### 
### Created by X-TOOL on Tue Oct 25 00:27:22 2005
### 

@<TRIPOS>MOLECULE
1qbt_ligand
  106   114     1     0     0
SMALL
GAST_HUCK


@<TRIPOS>ATOM
      1 C1         -8.8910   15.3150   27.9260 C.2       1 SUB1        0.267
      2 C2         -9.5340   14.7500   30.1640 C.3       1 SUB1        0.069
      3 C3        -10.8640   16.4660   28.9380 C.3       1 SUB1        0.085
      4 C4        -10.5680   17.9230   28.6760 C.3       1 SUB1        0.108
      5 C5        -10.2000   18.1730   27.2290 C.3       1 SUB1        0.108
      6 C6         -8.8220   17.6340   26.9400 C.3       1 SUB1        0.085
      7 C7         -8.1010   15.6010   25.6770 C.3       1 SUB1        0.069
      8 C20        -9.4360   15.5020   31.4490 C.ar      1 SUB1       -0.015
      9 C21       -10.0550   14.9640   32.5890 C.ar      1 SUB1       -0.038
     10 C22        -9.9910   15.6700   33.8100 C.ar      1 SUB1        0.051
     11 C23        -9.3050   16.9050   33.8870 C.ar      1 SUB1       -0.048
     12 C24        -8.6810   17.4330   32.7440 C.ar      1 SUB1       -0.063
     13 C25        -8.7490   16.7310   31.5250 C.ar      1 SUB1       -0.054
     14 C26       -10.6400   15.1250   35.0420 C.2       1 SUB1        0.242
     15 C27       -11.4080   13.1020   36.1550 C.2       1 SUB1        0.241
     16 C9        -12.7390   12.6320   39.4370 C.ar      1 SUB1       -0.046
     17 C11       -12.9550   11.3790   40.0430 C.ar      1 SUB1       -0.079
     18 C13       -12.6530   10.1780   39.3660 C.ar      1 SUB1       -0.082
     19 C14       -12.1250   10.1800   38.0620 C.ar      1 SUB1       -0.070
     20 C28       -11.8940   11.4130   37.4260 C.ar      1 SUB1        0.009
     21 C29       -12.2120   12.6800   38.1360 C.ar      1 SUB1        0.073
     22 C31       -11.9800   15.8390   28.0650 C.3       1 SUB1        0.007
     23 C32       -12.5320   14.5500   28.6140 C.ar      1 SUB1       -0.041
     24 C33       -12.1320   13.3170   28.0540 C.ar      1 SUB1       -0.060
     25 C34       -12.5800   12.1150   28.6330 C.ar      1 SUB1       -0.069
     26 C35       -13.4310   12.1430   29.7610 C.ar      1 SUB1       -0.069
     27 C36       -13.8410   13.3790   30.3120 C.ar      1 SUB1       -0.069
     28 C37       -13.3930   14.5870   29.7340 C.ar      1 SUB1       -0.060
     29 C61        -7.7000   18.2600   27.7930 C.3       1 SUB1        0.007
     30 C62        -6.3490   18.1720   27.1500 C.ar      1 SUB1       -0.041
     31 C63        -6.0520   19.0350   26.0750 C.ar      1 SUB1       -0.060
     32 C64        -4.7980   18.9320   25.4510 C.ar      1 SUB1       -0.069
     33 C65        -3.8510   17.9820   25.8970 C.ar      1 SUB1       -0.069
     34 C66        -4.1550   17.1360   26.9750 C.ar      1 SUB1       -0.069
     35 C67        -5.4100   17.2270   27.6040 C.ar      1 SUB1       -0.060
     36 C70        -8.8260   15.9050   24.4000 C.ar      1 SUB1       -0.015
     37 C71        -8.0450   16.2010   23.2840 C.ar      1 SUB1       -0.038
     38 C72        -8.6690   16.4720   22.0580 C.ar      1 SUB1        0.051
     39 C73       -10.0710   16.4380   21.9380 C.ar      1 SUB1       -0.048
     40 C74       -10.8650   16.1340   23.0580 C.ar      1 SUB1       -0.063
     41 C75       -10.2340   15.8720   24.2930 C.ar      1 SUB1       -0.054
     42 C76        -7.8390   16.8320   20.8730 C.2       1 SUB1        0.242
     43 C77        -5.6020   16.5760   19.8570 C.2       1 SUB1        0.241
     44 C15        -4.7300   16.8560   16.4100 C.ar      1 SUB1       -0.046
     45 C8         -3.4800   16.5070   15.8610 C.ar      1 SUB1       -0.079
     46 C10        -2.4370   16.0290   16.6830 C.ar      1 SUB1       -0.082
     47 C12        -2.6010   15.8790   18.0760 C.ar      1 SUB1       -0.070
     48 C78        -3.8330   16.2100   18.6640 C.ar      1 SUB1        0.009
     49 C79        -4.9280   16.7160   17.7940 C.ar      1 SUB1        0.073
     50 N2         -9.6990   15.5730   28.9690 N.am      1 SUB1       -0.240
     51 N7         -8.6770   16.1620   26.8970 N.am      1 SUB1       -0.240
     52 N26       -10.8970   13.8210   34.9940 N.am      1 SUB1       -0.184
     53 N3        -11.8810   13.6840   37.2790 N.pl3     1 SUB1       -0.228
     54 N27       -11.4020   11.7710   36.2050 N.2       1 SUB1       -0.314
     55 N76        -6.5410   16.5010   20.9820 N.am      1 SUB1       -0.184
     56 N1         -5.9800   16.9260   18.6130 N.pl3     1 SUB1       -0.228
     57 N77        -4.3320   16.1560   19.9350 N.2       1 SUB1       -0.314
     58 O1         -8.3190   14.2420   27.9110 O.2       1 SUB1       -0.400
     59 O4        -11.7400   18.6040   29.0060 O.3       1 SUB1       -0.387
     60 O5        -10.1230   19.5470   26.9490 O.3       1 SUB1       -0.387
     61 O26       -10.8930   15.7950   36.0290 O.2       1 SUB1       -0.369
     62 O76        -8.3020   17.3780   19.8870 O.2       1 SUB1       -0.369
     63 H21        -8.6137   14.1594   30.0452 H         1 SUB1        0.068
     64 H22       -10.3981   14.0728   30.2319 H         1 SUB1        0.068
     65 H31       -11.2613   16.4557   29.9637 H         1 SUB1        0.061
     66 H41        -9.7399   18.2585   29.3177 H         1 SUB1        0.064
     67 H51       -10.9452   17.6932   26.5776 H         1 SUB1        0.064
     68 H61        -8.6191   17.9645   25.9106 H         1 SUB1        0.061
     69 H71        -8.0701   14.5076   25.7928 H         1 SUB1        0.068
     70 H72        -7.0761   15.9887   25.5811 H         1 SUB1        0.068
     71 H91       -10.5770   14.0157   32.5320 H         1 SUB1        0.061
     72 H111       -9.2608   17.4434   34.8268 H         1 SUB1        0.061
     73 H121       -8.1498   18.3762   32.8003 H         1 SUB1        0.061
     74 H131       -8.2710   17.1374   30.6410 H         1 SUB1        0.059
     75 H161      -12.9763   13.5470   39.9676 H         1 SUB1        0.053
     76 H171      -13.3605   11.3363   41.0474 H         1 SUB1        0.051
     77 H181      -12.8322    9.2313   39.8627 H         1 SUB1        0.051
     78 H191      -11.9002    9.2478   37.5564 H         1 SUB1        0.051
     79 H221      -11.5673   15.6409   27.0648 H         1 SUB1        0.045
     80 H222      -12.8046   16.5625   27.9847 H         1 SUB1        0.045
     81 H241      -11.4847   13.2964   27.1847 H         1 SUB1        0.056
     82 H251      -12.2714   11.1648   28.2125 H         1 SUB1        0.060
     83 H261      -13.7704   11.2142   30.2051 H         1 SUB1        0.056
     84 H271      -14.4968   13.3992   31.1749 H         1 SUB1        0.060
     85 H281      -13.7081   15.5382   30.1475 H         1 SUB1        0.056
     86 H291       -7.6618   17.7357   28.7593 H         1 SUB1        0.045
     87 H292       -7.9388   19.3206   27.9604 H         1 SUB1        0.045
     88 H311       -6.7785   19.7648   25.7364 H         1 SUB1        0.056
     89 H321       -4.5546   19.5858   24.6213 H         1 SUB1        0.060
     90 H331       -2.8878   17.9067   25.4054 H         1 SUB1        0.056
     91 H341       -3.4244   16.4142   27.3220 H         1 SUB1        0.060
     92 H351       -5.6525   16.5729   28.4337 H         1 SUB1        0.056
     93 H371       -6.9641   16.2215   23.3633 H         1 SUB1        0.061
     94 H391      -10.5385   16.6461   20.9824 H         1 SUB1        0.061
     95 H401      -11.9453   16.1014   22.9742 H         1 SUB1        0.061
     96 H411      -10.8346   15.6437   25.1661 H         1 SUB1        0.059
     97 H441       -5.5262   17.2266   15.7746 H         1 SUB1        0.053
     98 H451       -3.3174   16.6069   14.7939 H         1 SUB1        0.051
     99 H461       -1.4856   15.7705   16.2323 H         1 SUB1        0.051
    100 H471       -1.7842   15.5118   18.6868 H         1 SUB1        0.051
    101 H521      -10.7361   13.3223   34.1423 H         1 SUB1        0.240
    102 H531      -11.9734   14.6948   37.4538 H         1 SUB1        0.230
    103 H551       -6.2001   16.1898   21.8691 H         1 SUB1        0.240
    104 H561       -6.9038   17.2881   18.3367 H         1 SUB1        0.230
    105 H591      -11.6157   19.5346   28.8610 H         1 SUB1        0.210
    106 H601      -10.9652   19.9516   27.1203 H         1 SUB1        0.210
@<TRIPOS>BOND
     1    1   58 2  
     2    1   51 am 
     3    1   50 am 
     4   50    3 1  
     5   50    2 1  
     6    2    8 1  
     7    8   13 ar 
     8    8    9 ar 
     9    9   10 ar 
    10   10   14 1  
    11   10   11 ar 
    12   11   12 ar 
    13   12   13 ar 
    14   14   61 2  
    15   14   52 am 
    16   52   15 am 
    17   15   53 1  
    18   15   54 2  
    19   54   20 1  
    20   20   21 ar 
    21   20   19 ar 
    22   19   18 ar 
    23   18   17 ar 
    24   17   16 ar 
    25   16   21 ar 
    26   21   53 1  
    27    3   22 1  
    28    3    4 1  
    29    4   59 1  
    30    4    5 1  
    31    5   60 1  
    32    5    6 1  
    33    6   51 1  
    34    6   29 1  
    35   29   30 1  
    36   30   35 ar 
    37   30   31 ar 
    38   31   32 ar 
    39   32   33 ar 
    40   33   34 ar 
    41   34   35 ar 
    42   51    7 1  
    43    7   36 1  
    44   36   41 ar 
    45   36   37 ar 
    46   37   38 ar 
    47   38   42 1  
    48   38   39 ar 
    49   39   40 ar 
    50   40   41 ar 
    51   42   55 am 
    52   42   62 2  
    53   55   43 am 
    54   43   56 1  
    55   43   57 2  
    56   57   48 1  
    57   48   49 ar 
    58   48   47 ar 
    59   47   46 ar 
    60   46   45 ar 
    61   45   44 ar 
    62   44   49 ar 
    63   49   56 1  
    64   22   23 1  
    65   23   28 ar 
    66   23   24 ar 
    67   24   25 ar 
    68   25   26 ar 
    69   26   27 ar 
    70   27   28 ar 
    71    2   63 1  
    72    2   64 1  
    73    3   65 1  
    74    4   66 1  
    75    5   67 1  
    76    6   68 1  
    77    7   69 1  
    78    7   70 1  
    79    9   71 1  
    80   11   72 1  
    81   12   73 1  
    82   13   74 1  
    83   16   75 1  
    84   17   76 1  
    85   18   77 1  
    86   19   78 1  
    87   22   79 1  
    88   22   80 1  
    89   24   81 1  
    90   25   82 1  
    91   26   83 1  
    92   27   84 1  
    93   28   85 1  
    94   29   86 1  
    95   29   87 1  
    96   31   88 1  
    97   32   89 1  
    98   33   90 1  
    99   34   91 1  
   100   35   92 1  
   101   37   93 1  
   102   39   94 1  
   103   40   95 1  
   104   41   96 1  
   105   44   97 1  
   106   45   98 1  
   107   46   99 1  
   108   47  100 1  
   109   52  101 1  
   110   53  102 1  
   111   55  103 1  
   112   56  104 1  
   113   59  105 1  
   114   60  106 1  
@<TRIPOS>SUBSTRUCTURE
     1 SUB1        1 GROUP

