2eum_ligand
  -I-interpret- 

126127  0  0  0  0  0  0  0  0999 V2000
   25.8640    4.6460   17.4650 C   0  0  0  0  0
   25.2490    5.7780   18.2860 C   0  0  0  0  0
   26.3210    6.8080   18.6700 C   0  0  0  0  0
   27.5250    6.1170   19.3180 C   0  0  0  0  0
   27.9740    4.9940   18.3790 C   0  0  0  0  0
   29.2470    4.2700   18.8030 C   0  0  0  0  0
   24.9230    3.6620   17.0940 O   0  0  0  0  0
   24.2490    6.3890   17.5110 O   0  0  0  0  0
   25.7900    7.8130   19.5120 O   0  0  0  0  0
   27.1970    5.6300   20.6050 O   0  0  0  0  0
   26.9300    4.0550   18.1710 O   0  0  0  0  0
   29.8360    3.7960   17.6030 O   0  0  0  0  0
   23.0680    0.4620   19.0850 C   0  0  0  0  0
   22.2710    1.7800   18.9350 C   0  0  0  0  0
   22.9050    2.8030   17.9950 C   0  0  0  0  0
   24.4280    2.7250   18.0200 C   0  0  0  0  0
   24.8770    1.3300   17.5750 C   0  0  0  0  0
   26.3930    1.1380   17.7220 C   0  0  0  0  0
   22.2120   -0.6450   18.9530 O   0  0  0  0  0
   20.9330    1.5440   18.5410 O   0  0  0  0  0
   22.4600    4.1050   18.3100 O   0  0  0  0  0
   24.1990    0.2550   18.2350 O   0  0  0  0  0
   26.7820    0.0230   16.9410 O   0  0  0  0  0
   22.4550   -1.9540   18.8780 C   0  0  0  0  0
   21.4090   -2.8080   19.5940 C   0  0  0  0  0
   20.0710   -2.4560   19.1420 N   0  3  0  0  0
   21.4890   -2.7060   21.1180 C   0  0  0  0  0
   22.7740   -3.1820   21.5490 O   0  0  0  0  0
   20.3670   -3.4920   21.8030 C   0  0  0  0  0
   19.6240   -2.9360   22.7680 C   0  0  0  0  0
   18.6120   -3.7680   23.5650 C   0  0  0  0  0
   19.1370   -4.2180   24.9380 C   0  0  0  0  0
   19.9870   -5.4950   24.8630 C   0  0  0  0  0
   21.2270   -5.4280   25.7440 C   0  0  0  0  0
   21.1970   -6.5340   26.7970 C   0  0  0  0  0
   21.9660   -6.1340   28.0510 C   0  0  0  0  0
   21.4340   -6.8580   29.2820 C   0  0  0  0  0
   21.8150   -6.1620   30.5900 C   0  0  0  0  0
   22.9020   -6.9260   31.3480 C   0  0  0  0  0
   22.3400   -7.8550   32.4240 C   0  0  0  0  0
   21.8090   -7.1110   33.6480 C   0  0  0  0  0
   21.6820   -8.0150   34.8730 C   0  0  0  0  0
   21.5260   -7.1820   36.1290 C   0  0  0  0  0
   19.0360   -2.5980   18.4380 C   0  0  0  0  0
   17.5450   -2.3030   18.3650 C   0  0  0  0  0
   16.8930   -2.5890   19.7090 C   0  0  0  0  0
   15.3880   -2.3970   19.6010 C   0  0  0  0  0
   14.6580   -3.5830   20.2090 C   0  0  0  0  0
   13.2750   -3.7200   19.5940 C   0  0  0  0  0
   12.6240   -4.9830   20.1380 C   0  0  0  0  0
   11.3670   -4.6310   20.9080 C   0  0  0  0  0
   19.2560   -4.0090   18.5970 O   0  0  0  0  0
   26.2356    5.0928   16.5428 H   0  0  0  0  0
   24.8225    5.3781   19.2059 H   0  0  0  0  0
   26.6627    7.2967   17.7576 H   0  0  0  0  0
   28.3423    6.8239   19.4606 H   0  0  0  0  0
   28.2171    5.4996   17.4445 H   0  0  0  0  0
   29.0294    3.4518   19.4895 H   0  0  0  0  0
   29.9221    4.9349   19.3418 H   0  0  0  0  0
   23.5844    5.7371   17.2765 H   0  0  0  0  0
   25.5069    7.4185   20.3401 H   0  0  0  0  0
   26.9213    6.3616   21.1621 H   0  0  0  0  0
   30.6482    3.3277   17.8097 H   0  0  0  0  0
   23.4917    0.5646   20.0840 H   0  0  0  0  0
   22.2906    2.2167   19.9335 H   0  0  0  0  0
   22.5868    2.5640   16.9802 H   0  0  0  0  0
   24.7966    2.9271   19.0257 H   0  0  0  0  0
   24.6022    1.2863   16.5211 H   0  0  0  0  0
   26.6468    0.9665   18.7681 H   0  0  0  0  0
   26.9161    2.0316   17.3816 H   0  0  0  0  0
   20.5352    0.9009   19.1323 H   0  0  0  0  0
   22.8112    4.7262   17.6677 H   0  0  0  0  0
   26.3204   -0.7598   17.2505 H   0  0  0  0  0
   23.4151   -2.1379   19.3602 H   0  0  0  0  0
   22.4395   -2.2310   17.8239 H   0  0  0  0  0
   21.6271   -3.8439   19.3343 H   0  0  0  0  0
   20.4123   -1.6808   18.5737 H   0  0  0  0  0
   19.6300   -2.8696   19.9635 H   0  0  0  0  0
   21.3633   -1.6616   21.4035 H   0  0  0  0  0
   22.8322   -3.1212   22.5053 H   0  0  0  0  0
   20.1703   -4.5204   21.5000 H   0  0  0  0  0
   19.7402   -1.8753   22.9906 H   0  0  0  0  0
   18.3963   -4.6657   22.9856 H   0  0  0  0  0
   17.7361   -3.1426   23.7373 H   0  0  0  0  0
   18.2753   -4.4281   25.5716 H   0  0  0  0  0
   19.7677   -3.4207   25.3311 H   0  0  0  0  0
   20.3158   -5.6181   23.8311 H   0  0  0  0  0
   19.3737   -6.3262   25.2110 H   0  0  0  0  0
   21.2517   -4.4613   26.2470 H   0  0  0  0  0
   22.1115   -5.5574   25.1202 H   0  0  0  0  0
   21.6638   -7.4243   26.3755 H   0  0  0  0  0
   20.1590   -6.7190   27.0733 H   0  0  0  0  0
   21.8488   -5.0609   28.2021 H   0  0  0  0  0
   23.0136   -6.4033   27.9160 H   0  0  0  0  0
   21.8700   -7.8569   29.2961 H   0  0  0  0  0
   20.3461   -6.8728   29.2164 H   0  0  0  0  0
   20.9281   -6.1133   31.2218 H   0  0  0  0  0
   22.1988   -5.1704   30.3500 H   0  0  0  0  0
   23.5395   -6.1930   31.8424 H   0  0  0  0  0
   23.4399   -7.5410   30.6265 H   0  0  0  0  0
   23.1518   -8.5011   32.7580 H   0  0  0  0  0
   21.5063   -8.4022   31.9839 H   0  0  0  0  0
   20.8163   -6.7312   33.4061 H   0  0  0  0  0
   22.5134   -6.3149   33.8893 H   0  0  0  0  0
   22.5817   -8.6241   34.9600 H   0  0  0  0  0
   20.8039   -8.6501   34.7565 H   0  0  0  0  0
   22.3992   -6.5407   36.2489 H   0  0  0  0  0
   20.6302   -6.5666   36.0464 H   0  0  0  0  0
   21.4368   -7.8416   36.9922 H   0  0  0  0  0
   19.0421   -1.7959   17.6999 H   0  0  0  0  0
   17.0905   -2.9366   17.6034 H   0  0  0  0  0
   17.3987   -1.2531   18.1111 H   0  0  0  0  0
   17.2916   -1.9034   20.4568 H   0  0  0  0  0
   17.1056   -3.6172   20.0018 H   0  0  0  0  0
   15.1153   -2.3134   18.5490 H   0  0  0  0  0
   15.1059   -1.4923   20.1395 H   0  0  0  0  0
   14.5569   -3.4271   21.2830 H   0  0  0  0  0
   15.2274   -4.4914   20.0122 H   0  0  0  0  0
   13.3562   -3.7825   18.5088 H   0  0  0  0  0
   12.6683   -2.8509   19.8484 H   0  0  0  0  0
   13.3231   -5.4867   20.8056 H   0  0  0  0  0
   12.3626   -5.6373   19.3064 H   0  0  0  0  0
   11.6235   -3.9737   21.7389 H   0  0  0  0  0
   10.6662   -4.1239   20.2448 H   0  0  0  0  0
   10.9104   -5.5431   21.2922 H   0  0  0  0  0
   18.5694   -4.4931   18.1325 H   0  0  0  0  0
  1  2  1  0  0  0
  7  1  1  0  0  0
  1 11  1  0  0  0
  2  3  1  0  0  0
  2  8  1  0  0  0
  3  4  1  0  0  0
  3  9  1  0  0  0
  5  4  1  0  0  0
  4 10  1  0  0  0
  5  6  1  0  0  0
 11  5  1  0  0  0
  6 12  1  0  0  0
 16  7  1  0  0  0
 14 13  1  0  0  0
 13 19  1  0  0  0
 13 22  1  0  0  0
 15 14  1  0  0  0
 14 20  1  0  0  0
 15 16  1  0  0  0
 15 21  1  0  0  0
 16 17  1  0  0  0
 17 18  1  0  0  0
 17 22  1  0  0  0
 18 23  1  0  0  0
 19 24  1  0  0  0
 24 25  1  0  0  0
 25 26  1  0  0  0
 25 27  1  0  0  0
 26 44  1  0  0  0
 27 28  1  0  0  0
 27 29  1  0  0  0
 29 30  2  0  0  0
 30 31  1  0  0  0
 31 32  1  0  0  0
 32 33  1  0  0  0
 33 34  1  0  0  0
 34 35  1  0  0  0
 35 36  1  0  0  0
 36 37  1  0  0  0
 37 38  1  0  0  0
 38 39  1  0  0  0
 39 40  1  0  0  0
 40 41  1  0  0  0
 41 42  1  0  0  0
 42 43  1  0  0  0
 44 45  1  0  0  0
 44 52  1  0  0  0
 45 46  1  0  0  0
 46 47  1  0  0  0
 47 48  1  0  0  0
 48 49  1  0  0  0
 49 50  1  0  0  0
 50 51  1  0  0  0
  1 53  1  0  0  0
  2 54  1  0  0  0
  3 55  1  0  0  0
  4 56  1  0  0  0
  5 57  1  0  0  0
  6 58  1  0  0  0
  6 59  1  0  0  0
  8 60  1  0  0  0
  9 61  1  0  0  0
 10 62  1  0  0  0
 12 63  1  0  0  0
 13 64  1  0  0  0
 14 65  1  0  0  0
 15 66  1  0  0  0
 16 67  1  0  0  0
 17 68  1  0  0  0
 18 69  1  0  0  0
 18 70  1  0  0  0
 20 71  1  0  0  0
 21 72  1  0  0  0
 23 73  1  0  0  0
 24 74  1  0  0  0
 24 75  1  0  0  0
 25 76  1  0  0  0
 26 77  1  0  0  0
 26 78  1  0  0  0
 27 79  1  0  0  0
 28 80  1  0  0  0
 29 81  1  0  0  0
 30 82  1  0  0  0
 31 83  1  0  0  0
 31 84  1  0  0  0
 32 85  1  0  0  0
 32 86  1  0  0  0
 33 87  1  0  0  0
 33 88  1  0  0  0
 34 89  1  0  0  0
 34 90  1  0  0  0
 35 91  1  0  0  0
 35 92  1  0  0  0
 36 93  1  0  0  0
 36 94  1  0  0  0
 37 95  1  0  0  0
 37 96  1  0  0  0
 38 97  1  0  0  0
 38 98  1  0  0  0
 39 99  1  0  0  0
 39100  1  0  0  0
 40101  1  0  0  0
 40102  1  0  0  0
 41103  1  0  0  0
 41104  1  0  0  0
 42105  1  0  0  0
 42106  1  0  0  0
 43107  1  0  0  0
 43108  1  0  0  0
 43109  1  0  0  0
 44110  1  0  0  0
 45111  1  0  0  0
 45112  1  0  0  0
 46113  1  0  0  0
 46114  1  0  0  0
 47115  1  0  0  0
 47116  1  0  0  0
 48117  1  0  0  0
 48118  1  0  0  0
 49119  1  0  0  0
 49120  1  0  0  0
 50121  1  0  0  0
 50122  1  0  0  0
 51123  1  0  0  0
 51124  1  0  0  0
 51125  1  0  0  0
 52126  1  0  0  0
M  END
$$$$
