### 
### Created by X-TOOL on Sun Jun  3 12:01:55 2007
### 

@<TRIPOS>MOLECULE
2eum_ligand
  126   127     1     0     0
SMALL
GAST_HUCK


@<TRIPOS>ATOM
      1 C1         25.8640    4.6460   17.4650 C.3       1 SUB1        0.188
      2 C2         25.2490    5.7780   18.2860 C.3       1 SUB1        0.134
      3 C3         26.3210    6.8080   18.6700 C.3       1 SUB1        0.114
      4 C4         27.5250    6.1170   19.3180 C.3       1 SUB1        0.112
      5 C5         27.9740    4.9940   18.3790 C.3       1 SUB1        0.113
      6 C6         29.2470    4.2700   18.8030 C.3       1 SUB1        0.073
      7 O1         24.9230    3.6620   17.0940 O.3       1 SUB1       -0.340
      8 O2         24.2490    6.3890   17.5110 O.3       1 SUB1       -0.384
      9 O3         25.7900    7.8130   19.5120 O.3       1 SUB1       -0.386
     10 O4         27.1970    5.6300   20.6050 O.3       1 SUB1       -0.387
     11 O5         26.9300    4.0550   18.1710 O.3       1 SUB1       -0.340
     12 O6         29.8360    3.7960   17.6030 O.3       1 SUB1       -0.392
     13 C1'        23.0680    0.4620   19.0850 C.3       1 SUB1        0.188
     14 C2'        22.2710    1.7800   18.9350 C.3       1 SUB1        0.134
     15 C3'        22.9050    2.8030   17.9950 C.3       1 SUB1        0.114
     16 C4'        24.4280    2.7250   18.0200 C.3       1 SUB1        0.118
     17 C5'        24.8770    1.3300   17.5750 C.3       1 SUB1        0.113
     18 C6'        26.3930    1.1380   17.7220 C.3       1 SUB1        0.073
     19 O1'        22.2120   -0.6450   18.9530 O.3       1 SUB1       -0.343
     20 O2'        20.9330    1.5440   18.5410 O.3       1 SUB1       -0.384
     21 O3'        22.4600    4.1050   18.3100 O.3       1 SUB1       -0.386
     22 O5'        24.1990    0.2550   18.2350 O.3       1 SUB1       -0.340
     23 O6'        26.7820    0.0230   16.9410 O.3       1 SUB1       -0.392
     24 C1         22.4550   -1.9540   18.8780 C.3       1 SUB1        0.097
     25 C2         21.4090   -2.8080   19.5940 C.3       1 SUB1        0.037
     26 N2         20.0710   -2.4560   19.1420 N.4       1 SUB1        0.256
     27 C3         21.4890   -2.7060   21.1180 C.3       1 SUB1        0.117
     28 O3         22.7740   -3.1820   21.5490 O.3       1 SUB1       -0.377
     29 C4         20.3670   -3.4920   21.8030 C.2       1 SUB1       -0.065
     30 C5         19.6240   -2.9360   22.7680 C.2       1 SUB1       -0.096
     31 C6         18.6120   -3.7680   23.5650 C.3       1 SUB1       -0.036
     32 C7         19.1370   -4.2180   24.9380 C.3       1 SUB1       -0.046
     33 C8         19.9870   -5.4950   24.8630 C.3       1 SUB1       -0.052
     34 C9         21.2270   -5.4280   25.7440 C.3       1 SUB1       -0.053
     35 C10        21.1970   -6.5340   26.7970 C.3       1 SUB1       -0.053
     36 C11        21.9660   -6.1340   28.0510 C.3       1 SUB1       -0.053
     37 C12        21.4340   -6.8580   29.2820 C.3       1 SUB1       -0.053
     38 C13        21.8150   -6.1620   30.5900 C.3       1 SUB1       -0.053
     39 C14        22.9020   -6.9260   31.3480 C.3       1 SUB1       -0.053
     40 C15        22.3400   -7.8550   32.4240 C.3       1 SUB1       -0.053
     41 C16        21.8090   -7.1110   33.6480 C.3       1 SUB1       -0.053
     42 C17        21.6820   -8.0150   34.8730 C.3       1 SUB1       -0.056
     43 C18        21.5260   -7.1820   36.1290 C.3       1 SUB1       -0.065
     44 C1         19.0360   -2.5980   18.4380 C.3       1 SUB1        0.081
     45 C2         17.5450   -2.3030   18.3650 C.3       1 SUB1        0.017
     46 C3         16.8930   -2.5890   19.7090 C.3       1 SUB1       -0.045
     47 C4         15.3880   -2.3970   19.6010 C.3       1 SUB1       -0.053
     48 C5         14.6580   -3.5830   20.2090 C.3       1 SUB1       -0.053
     49 C6         13.2750   -3.7200   19.5940 C.3       1 SUB1       -0.053
     50 C7         12.6240   -4.9830   20.1380 C.3       1 SUB1       -0.056
     51 C8         11.3670   -4.6310   20.9080 C.3       1 SUB1       -0.065
     52 O1         19.2560   -4.0090   18.5970 O.3       1 SUB1       -0.353
     53 H          26.2356    5.0928   16.5428 H         1 SUB1        0.094
     54 H          24.8225    5.3781   19.2059 H         1 SUB1        0.067
     55 H          26.6627    7.2967   17.7576 H         1 SUB1        0.065
     56 H          28.3423    6.8239   19.4606 H         1 SUB1        0.065
     57 H          28.2171    5.4996   17.4445 H         1 SUB1        0.065
     58 H          29.0294    3.4518   19.4895 H         1 SUB1        0.058
     59 H          29.9221    4.9349   19.3418 H         1 SUB1        0.058
     60 H          23.5844    5.7371   17.2765 H         1 SUB1        0.210
     61 H          25.5069    7.4185   20.3401 H         1 SUB1        0.210
     62 H          26.9213    6.3616   21.1621 H         1 SUB1        0.210
     63 H          30.6482    3.3277   17.8097 H         1 SUB1        0.209
     64 H          23.4917    0.5646   20.0840 H         1 SUB1        0.094
     65 H          22.2906    2.2167   19.9335 H         1 SUB1        0.067
     66 H          22.5868    2.5640   16.9802 H         1 SUB1        0.065
     67 H          24.7966    2.9271   19.0257 H         1 SUB1        0.065
     68 H          24.6022    1.2863   16.5211 H         1 SUB1        0.065
     69 H          26.6468    0.9665   18.7681 H         1 SUB1        0.058
     70 H          26.9161    2.0316   17.3816 H         1 SUB1        0.058
     71 H          20.5352    0.9009   19.1323 H         1 SUB1        0.210
     72 H          22.8112    4.7262   17.6677 H         1 SUB1        0.210
     73 H          26.3204   -0.7598   17.2505 H         1 SUB1        0.209
     74 H          23.4151   -2.1379   19.3602 H         1 SUB1        0.062
     75 H          22.4395   -2.2310   17.8239 H         1 SUB1        0.062
     76 H          21.6271   -3.8439   19.3343 H         1 SUB1        0.092
     77 H          20.4123   -1.6808   18.5737 H         1 SUB1        0.205
     78 H          19.6300   -2.8696   19.9635 H         1 SUB1        0.205
     79 H          21.3633   -1.6616   21.4035 H         1 SUB1        0.078
     80 H          22.8322   -3.1212   22.5053 H         1 SUB1        0.213
     81 H          20.1703   -4.5204   21.5000 H         1 SUB1        0.048
     82 H          19.7402   -1.8753   22.9906 H         1 SUB1        0.045
     83 H          18.3963   -4.6657   22.9856 H         1 SUB1        0.039
     84 H          17.7361   -3.1426   23.7373 H         1 SUB1        0.039
     85 H          18.2753   -4.4281   25.5716 H         1 SUB1        0.029
     86 H          19.7677   -3.4207   25.3311 H         1 SUB1        0.029
     87 H          20.3158   -5.6181   23.8311 H         1 SUB1        0.027
     88 H          19.3737   -6.3262   25.2110 H         1 SUB1        0.027
     89 H          21.2517   -4.4613   26.2470 H         1 SUB1        0.026
     90 H          22.1115   -5.5574   25.1202 H         1 SUB1        0.026
     91 H          21.6638   -7.4243   26.3755 H         1 SUB1        0.026
     92 H          20.1590   -6.7190   27.0733 H         1 SUB1        0.026
     93 H          21.8488   -5.0609   28.2021 H         1 SUB1        0.026
     94 H          23.0136   -6.4033   27.9160 H         1 SUB1        0.026
     95 H          21.8700   -7.8569   29.2961 H         1 SUB1        0.026
     96 H          20.3461   -6.8728   29.2164 H         1 SUB1        0.026
     97 H          20.9281   -6.1133   31.2218 H         1 SUB1        0.026
     98 H          22.1988   -5.1704   30.3500 H         1 SUB1        0.026
     99 H          23.5395   -6.1930   31.8424 H         1 SUB1        0.026
    100 H          23.4399   -7.5410   30.6265 H         1 SUB1        0.026
    101 H          23.1518   -8.5011   32.7580 H         1 SUB1        0.026
    102 H          21.5063   -8.4022   31.9839 H         1 SUB1        0.026
    103 H          20.8163   -6.7312   33.4061 H         1 SUB1        0.026
    104 H          22.5134   -6.3149   33.8893 H         1 SUB1        0.026
    105 H          22.5817   -8.6241   34.9600 H         1 SUB1        0.026
    106 H          20.8039   -8.6501   34.7565 H         1 SUB1        0.026
    107 H          22.3992   -6.5407   36.2489 H         1 SUB1        0.023
    108 H          20.6302   -6.5666   36.0464 H         1 SUB1        0.023
    109 H          21.4368   -7.8416   36.9922 H         1 SUB1        0.023
    110 H          19.0421   -1.7959   17.6999 H         1 SUB1        0.118
    111 H          17.0905   -2.9366   17.6034 H         1 SUB1        0.035
    112 H          17.3987   -1.2531   18.1111 H         1 SUB1        0.035
    113 H          17.2916   -1.9034   20.4568 H         1 SUB1        0.027
    114 H          17.1056   -3.6172   20.0018 H         1 SUB1        0.027
    115 H          15.1153   -2.3134   18.5490 H         1 SUB1        0.026
    116 H          15.1059   -1.4923   20.1395 H         1 SUB1        0.026
    117 H          14.5569   -3.4271   21.2830 H         1 SUB1        0.026
    118 H          15.2274   -4.4914   20.0122 H         1 SUB1        0.026
    119 H          13.3562   -3.7825   18.5088 H         1 SUB1        0.026
    120 H          12.6683   -2.8509   19.8484 H         1 SUB1        0.026
    121 H          13.3231   -5.4867   20.8056 H         1 SUB1        0.026
    122 H          12.3626   -5.6373   19.3064 H         1 SUB1        0.026
    123 H          11.6235   -3.9737   21.7389 H         1 SUB1        0.023
    124 H          10.6662   -4.1239   20.2448 H         1 SUB1        0.023
    125 H          10.9104   -5.5431   21.2922 H         1 SUB1        0.023
    126 H          18.5694   -4.4931   18.1325 H         1 SUB1        0.215
@<TRIPOS>BOND
     1    1    2 1  
     2    7    1 1  
     3    1   11 1  
     4    2    3 1  
     5    2    8 1  
     6    3    4 1  
     7    3    9 1  
     8    5    4 1  
     9    4   10 1  
    10    5    6 1  
    11   11    5 1  
    12    6   12 1  
    13   16    7 1  
    14   14   13 1  
    15   13   19 1  
    16   13   22 1  
    17   15   14 1  
    18   14   20 1  
    19   15   16 1  
    20   15   21 1  
    21   16   17 1  
    22   17   18 1  
    23   17   22 1  
    24   18   23 1  
    25   19   24 1  
    26   24   25 1  
    27   25   26 1  
    28   25   27 1  
    29   26   44 1  
    30   27   28 1  
    31   27   29 1  
    32   29   30 2  
    33   30   31 1  
    34   31   32 1  
    35   32   33 1  
    36   33   34 1  
    37   34   35 1  
    38   35   36 1  
    39   36   37 1  
    40   37   38 1  
    41   38   39 1  
    42   39   40 1  
    43   40   41 1  
    44   41   42 1  
    45   42   43 1  
    46   44   45 1  
    47   44   52 1  
    48   45   46 1  
    49   46   47 1  
    50   47   48 1  
    51   48   49 1  
    52   49   50 1  
    53   50   51 1  
    54    1   53 1  
    55    2   54 1  
    56    3   55 1  
    57    4   56 1  
    58    5   57 1  
    59    6   58 1  
    60    6   59 1  
    61    8   60 1  
    62    9   61 1  
    63   10   62 1  
    64   12   63 1  
    65   13   64 1  
    66   14   65 1  
    67   15   66 1  
    68   16   67 1  
    69   17   68 1  
    70   18   69 1  
    71   18   70 1  
    72   20   71 1  
    73   21   72 1  
    74   23   73 1  
    75   24   74 1  
    76   24   75 1  
    77   25   76 1  
    78   26   77 1  
    79   26   78 1  
    80   27   79 1  
    81   28   80 1  
    82   29   81 1  
    83   30   82 1  
    84   31   83 1  
    85   31   84 1  
    86   32   85 1  
    87   32   86 1  
    88   33   87 1  
    89   33   88 1  
    90   34   89 1  
    91   34   90 1  
    92   35   91 1  
    93   35   92 1  
    94   36   93 1  
    95   36   94 1  
    96   37   95 1  
    97   37   96 1  
    98   38   97 1  
    99   38   98 1  
   100   39   99 1  
   101   39  100 1  
   102   40  101 1  
   103   40  102 1  
   104   41  103 1  
   105   41  104 1  
   106   42  105 1  
   107   42  106 1  
   108   43  107 1  
   109   43  108 1  
   110   43  109 1  
   111   44  110 1  
   112   45  111 1  
   113   45  112 1  
   114   46  113 1  
   115   46  114 1  
   116   47  115 1  
   117   47  116 1  
   118   48  117 1  
   119   48  118 1  
   120   49  119 1  
   121   49  120 1  
   122   50  121 1  
   123   50  122 1  
   124   51  123 1  
   125   51  124 1  
   126   51  125 1  
   127   52  126 1  
@<TRIPOS>SUBSTRUCTURE
     1 SUB1        1 GROUP

