1q8t_ligand
  -I-interpret- 

 40 41  0  0  0  0  0  0  0  0999 V2000
    7.5670    9.6490    1.6590 O   0  0  0  0  0
    7.9850    9.4820    2.8080 C   0  0  0  0  0
    9.3900    9.0330    3.1220 C   0  0  0  0  0
    9.8020    7.9260    2.1470 C   0  0  0  0  0
   11.1770    7.3720    2.5330 C   0  0  0  0  0
   12.1910    8.5000    2.3070 C   0  0  0  0  0
   11.8850    9.6720    3.2770 C   0  0  0  0  0
   10.4100   10.1890    3.1380 C   0  0  0  0  0
   13.6350    7.9160    2.3770 C   0  0  0  0  0
   14.0090    7.2340    1.0480 C   0  0  0  0  0
   14.6510    8.9840    2.6880 N   0  3  0  0  0
    7.1750    9.6680    3.9630 N   0  0  0  0  0
    5.7350    9.7420    4.0100 C   0  0  0  0  0
    5.1650    9.6930    5.2930 C   0  0  0  0  0
    3.7700    9.7460    5.3480 C   0  0  0  0  0
    3.0100    9.8540    4.2380 N   0  0  0  0  0
    3.5410    9.9010    3.0060 C   0  0  0  0  0
    4.9180    9.8440    2.8470 C   0  0  0  0  0
    9.3886    8.6106    4.1376 H   0  0  0  0  0
    9.0681    7.1075    2.1840 H   0  0  0  0  0
    9.8587    8.3331    1.1267 H   0  0  0  0  0
   11.1881    7.0743    3.5919 H   0  0  0  0  0
   11.4367    6.5116    1.8988 H   0  0  0  0  0
   12.0657    8.8830    1.2835 H   0  0  0  0  0
   12.0331    9.3311    4.3123 H   0  0  0  0  0
   12.5641   10.5088    3.0569 H   0  0  0  0  0
   10.3306   10.7540    2.1976 H   0  0  0  0  0
   10.1949   10.8489    3.9913 H   0  0  0  0  0
   13.6730    7.1715    3.1859 H   0  0  0  0  0
   15.0301    6.8325    1.1265 H   0  0  0  0  0
   13.3137    6.4069    0.8422 H   0  0  0  0  0
   13.9741    7.9662    0.2278 H   0  0  0  0  0
   14.4038    9.4287    3.5582 H   0  0  0  0  0
   15.5663    8.5717    2.7785 H   0  0  0  0  0
   14.6569    9.6765    1.9556 H   0  0  0  0  0
    7.6553    9.7569    4.8356 H   0  0  0  0  0
    5.7720    9.6184    6.1880 H   0  0  0  0  0
    3.2817    9.6988    6.3146 H   0  0  0  0  0
    2.8962    9.9832    2.1385 H   0  0  0  0  0
    5.3629    9.8764    1.8591 H   0  0  0  0  0
  1  2  2  0  0  0
  2  3  1  0  0  0
  2 12  1  0  0  0
  3  4  1  0  0  0
  3  8  1  0  0  0
  4  5  1  0  0  0
  5  6  1  0  0  0
  6  7  1  0  0  0
  6  9  1  0  0  0
  7  8  1  0  0  0
  9 10  1  0  0  0
  9 11  1  0  0  0
 12 13  1  0  0  0
 13 14  4  0  0  0
 13 18  4  0  0  0
 14 15  4  0  0  0
 15 16  4  0  0  0
 16 17  4  0  0  0
 17 18  4  0  0  0
  3 19  1  0  0  0
  4 20  1  0  0  0
  4 21  1  0  0  0
  5 22  1  0  0  0
  5 23  1  0  0  0
  6 24  1  0  0  0
  7 25  1  0  0  0
  7 26  1  0  0  0
  8 27  1  0  0  0
  8 28  1  0  0  0
  9 29  1  0  0  0
 10 30  1  0  0  0
 10 31  1  0  0  0
 10 32  1  0  0  0
 11 33  1  0  0  0
 11 34  1  0  0  0
 11 35  1  0  0  0
 12 36  1  0  0  0
 14 37  1  0  0  0
 15 38  1  0  0  0
 17 39  1  0  0  0
 18 40  1  0  0  0
M  END
$$$$
