### 
### Created by X-TOOL on Tue Oct 25 00:06:44 2005
### 

@<TRIPOS>MOLECULE
1q8t_ligand
   40    41     1     0     0
SMALL
GAST_HUCK


@<TRIPOS>ATOM
      1 O23         7.5670    9.6490    1.6590 O.2       1 SUB1       -0.383
      2 C22         7.9850    9.4820    2.8080 C.2       1 SUB1        0.211
      3 C31         9.3900    9.0330    3.1220 C.3       1 SUB1        0.055
      4 C36         9.8020    7.9260    2.1470 C.3       1 SUB1       -0.032
      5 C35        11.1770    7.3720    2.5330 C.3       1 SUB1       -0.043
      6 C34        12.1910    8.5000    2.3070 C.3       1 SUB1        0.002
      7 C33        11.8850    9.6720    3.2770 C.3       1 SUB1       -0.043
      8 C32        10.4100   10.1890    3.1380 C.3       1 SUB1       -0.032
      9 C41        13.6350    7.9160    2.3770 C.3       1 SUB1       -0.024
     10 C42        14.0090    7.2340    1.0480 C.3       1 SUB1       -0.022
     11 N43        14.6510    8.9840    2.6880 N.4       1 SUB1        0.221
     12 N21         7.1750    9.6680    3.9630 N.am      1 SUB1       -0.225
     13 C14         5.7350    9.7420    4.0100 C.ar      1 SUB1        0.087
     14 C15         5.1650    9.6930    5.2930 C.ar      1 SUB1       -0.014
     15 C16         3.7700    9.7460    5.3480 C.ar      1 SUB1       -0.007
     16 N11         3.0100    9.8540    4.2380 N.ar      1 SUB1       -0.320
     17 C12         3.5410    9.9010    3.0060 C.ar      1 SUB1       -0.007
     18 C13         4.9180    9.8440    2.8470 C.ar      1 SUB1       -0.014
     19 H31         9.3886    8.6106    4.1376 H         1 SUB1        0.054
     20 H41         9.0681    7.1075    2.1840 H         1 SUB1        0.029
     21 H42         9.8587    8.3331    1.1267 H         1 SUB1        0.029
     22 H51        11.1881    7.0743    3.5919 H         1 SUB1        0.027
     23 H52        11.4367    6.5116    1.8988 H         1 SUB1        0.027
     24 H61        12.0657    8.8830    1.2835 H         1 SUB1        0.036
     25 H71        12.0331    9.3311    4.3123 H         1 SUB1        0.027
     26 H72        12.5641   10.5088    3.0569 H         1 SUB1        0.027
     27 H81        10.3306   10.7540    2.1976 H         1 SUB1        0.029
     28 H82        10.1949   10.8489    3.9913 H         1 SUB1        0.029
     29 H91        13.6730    7.1715    3.1859 H         1 SUB1        0.085
     30 H101       15.0301    6.8325    1.1265 H         1 SUB1        0.028
     31 H102       13.3137    6.4069    0.8422 H         1 SUB1        0.028
     32 H103       13.9741    7.9662    0.2278 H         1 SUB1        0.028
     33 H111       14.4038    9.4287    3.5582 H         1 SUB1        0.200
     34 H112       15.5663    8.5717    2.7785 H         1 SUB1        0.200
     35 H113       14.6569    9.6765    1.9556 H         1 SUB1        0.200
     36 H121        7.6553    9.7569    4.8356 H         1 SUB1        0.231
     37 H141        5.7720    9.6184    6.1880 H         1 SUB1        0.060
     38 H151        3.2817    9.6988    6.3146 H         1 SUB1        0.077
     39 H171        2.8962    9.9832    2.1385 H         1 SUB1        0.077
     40 H181        5.3629    9.8764    1.8591 H         1 SUB1        0.060
@<TRIPOS>BOND
     1    1    2 2  
     2    2    3 1  
     3    2   12 am 
     4    3    4 1  
     5    3    8 1  
     6    4    5 1  
     7    5    6 1  
     8    6    7 1  
     9    6    9 1  
    10    7    8 1  
    11    9   10 1  
    12    9   11 1  
    13   12   13 1  
    14   13   14 ar 
    15   13   18 ar 
    16   14   15 ar 
    17   15   16 ar 
    18   16   17 ar 
    19   17   18 ar 
    20    3   19 1  
    21    4   20 1  
    22    4   21 1  
    23    5   22 1  
    24    5   23 1  
    25    6   24 1  
    26    7   25 1  
    27    7   26 1  
    28    8   27 1  
    29    8   28 1  
    30    9   29 1  
    31   10   30 1  
    32   10   31 1  
    33   10   32 1  
    34   11   33 1  
    35   11   34 1  
    36   11   35 1  
    37   12   36 1  
    38   14   37 1  
    39   15   38 1  
    40   17   39 1  
    41   18   40 1  
@<TRIPOS>SUBSTRUCTURE
     1 SUB1        1 GROUP

