1li6_ligand
  -I-interpret- 

 13 13  0  0  0  0  0  0  0  0999 V2000
   26.7300    5.9470    4.3230 C   0  0  0  0  0
   27.1480    7.0620    5.1970 C   0  0  0  0  0
   27.3380    6.1470    3.1460 C   0  0  0  0  0
   25.8010    4.8230    4.6960 C   0  0  0  0  0
   27.9620    7.8210    4.4460 C   0  0  0  0  0
   28.0940    7.2770    3.2070 N   0  0  0  0  0
   26.8572    7.2325    6.2325 H   0  0  0  0  0
   27.2419    5.5031    2.2730 H   0  0  0  0  0
   25.4780    4.9565    5.7390 H   0  0  0  0  0
   24.9162    4.8352    4.0427 H   0  0  0  0  0
   26.3224    3.8589    4.6032 H   0  0  0  0  0
   28.4455    8.7378    4.7802 H   0  0  0  0  0
   28.6700    7.6567    2.4422 H   0  0  0  0  0
  1  2  1  0  0  0
  1  3  2  0  0  0
  1  4  1  0  0  0
  2  5  2  0  0  0
  3  6  1  0  0  0
  5  6  1  0  0  0
  2  7  1  0  0  0
  3  8  1  0  0  0
  4  9  1  0  0  0
  4 10  1  0  0  0
  4 11  1  0  0  0
  5 12  1  0  0  0
  6 13  1  0  0  0
M  END
$$$$
