### 
### Created by X-TOOL on Mon Oct 24 23:59:27 2005
### 

@<TRIPOS>MOLECULE
1li6_ligand
   13    13     1     0     0
SMALL
GAST_HUCK


@<TRIPOS>ATOM
      1 C1         26.7300    5.9470    4.3230 C.2       1 SUB1       -0.073
      2 C2         27.1480    7.0620    5.1970 C.2       1 SUB1       -0.083
      3 C3         27.3380    6.1470    3.1460 C.2       1 SUB1        0.008
      4 C4         25.8010    4.8230    4.6960 C.3       1 SUB1       -0.052
      5 C5         27.9620    7.8210    4.4460 C.2       1 SUB1        0.008
      6 N6         28.0940    7.2770    3.2070 N.pl3     1 SUB1       -0.304
      7 H21        26.8572    7.2325    6.2325 H         1 SUB1        0.025
      8 H31        27.2419    5.5031    2.2730 H         1 SUB1        0.068
      9 H41        25.4780    4.9565    5.7390 H         1 SUB1        0.032
     10 H42        24.9162    4.8352    4.0427 H         1 SUB1        0.032
     11 H43        26.3224    3.8589    4.6032 H         1 SUB1        0.032
     12 H51        28.4455    8.7378    4.7802 H         1 SUB1        0.079
     13 H61        28.6700    7.6567    2.4422 H         1 SUB1        0.230
@<TRIPOS>BOND
     1    1    2 1  
     2    1    3 2  
     3    1    4 1  
     4    2    5 2  
     5    3    6 1  
     6    5    6 1  
     7    2    7 1  
     8    3    8 1  
     9    4    9 1  
    10    4   10 1  
    11    4   11 1  
    12    5   12 1  
    13    6   13 1  
@<TRIPOS>SUBSTRUCTURE
     1 SUB1        1 GROUP

