### 
### Created by X-TOOL on Mon Oct 24 23:35:46 2005
### 

@<TRIPOS>MOLECULE
1g4o_ligand
   34    35     1     0     0
SMALL
GAST_HUCK


@<TRIPOS>ATOM
      1 H31        -2.8513    3.5957   14.2679 H         1 SUB1        0.067
      2 H41        -3.5642    1.5207   15.4632 H         1 SUB1        0.065
      3 C01        -3.8480    3.5450   14.6910 C.ar      1 SUB1       -0.040
      4 C02        -4.2370    2.3650   15.3650 C.ar      1 SUB1       -0.030
      5 C03        -5.5740    2.3350   15.9180 C.ar      1 SUB1        0.112
      6 C04        -6.4120    3.4700   15.7530 C.ar      1 SUB1       -0.030
      7 C05        -5.9770    4.6190   15.0710 C.ar      1 SUB1       -0.040
      8 C06        -4.7000    4.6590   14.5450 C.ar      1 SUB1        0.050
      9 C07        -4.1860    5.8880   13.8100 C.2       1 SUB1        0.207
     10 O08        -4.9130    6.8570   13.6790 O.2       1 SUB1       -0.384
     11 N09        -2.8950    5.8980   13.3010 N.am      1 SUB1       -0.275
     12 C10        -2.2190    6.9700   12.5800 C.3       1 SUB1        0.064
     13 S11        -6.0590    0.8320   16.7840 S.o2      1 SUB1        0.068
     14 NP2        -5.6290   -0.5400   16.0950 N.am      1 SUB1       -0.261
     15 O13        -7.5390    1.0910   16.8390 O.2       1 SUB1       -0.150
     16 O14        -5.5270    1.1290   18.0940 O.2       1 SUB1       -0.150
     17 C15        -1.4690    7.9020   13.3820 C.ar      1 SUB1       -0.021
     18 C16        -1.8430    8.0700   14.7660 C.ar      1 SUB1       -0.058
     19 C17        -1.1590    8.9730   15.6310 C.ar      1 SUB1       -0.068
     20 C18        -0.0750    9.7300   15.1060 C.ar      1 SUB1       -0.069
     21 C19         0.3390    9.5950   13.7200 C.ar      1 SUB1       -0.068
     22 C20        -0.3680    8.6670   12.8410 C.ar      1 SUB1       -0.058
     23 H61        -7.4146    3.4492   16.1645 H         1 SUB1        0.065
     24 H71        -6.6397    5.4694   14.9582 H         1 SUB1        0.067
     25 H111       -2.3611    5.0651   13.4471 H         1 SUB1        0.187
     26 H121       -2.9836    7.5393   12.0310 H         1 SUB1        0.068
     27 H122       -1.5231    6.5067   11.8651 H         1 SUB1        0.068
     28 H141       -5.8691   -1.4182   16.5276 H         1 SUB1        0.163
     29 H181       -2.6704    7.4910   15.1600 H         1 SUB1        0.056
     30 H191       -1.4585    9.0807   16.6672 H         1 SUB1        0.060
     31 H201        0.4526   10.4214   15.7530 H         1 SUB1        0.056
     32 H211        1.1686   10.1801   13.3400 H         1 SUB1        0.060
     33 H221       -0.0731    8.5542   11.8040 H         1 SUB1        0.056
     34 H142       -5.1211   -0.5293   15.2337 H         1 SUB1        0.163
@<TRIPOS>BOND
     1    3    8 ar 
     2    3    4 ar 
     3    4    5 ar 
     4    5   13 1  
     5    5    6 ar 
     6    6    7 ar 
     7    7    8 ar 
     8    8    9 1  
     9    9   11 am 
    10    9   10 2  
    11   11   12 1  
    12   12   17 1  
    13   17   22 ar 
    14   17   18 ar 
    15   18   19 ar 
    16   19   20 ar 
    17   20   21 ar 
    18   21   22 ar 
    19   13   16 2  
    20   13   15 2  
    21   13   14 1  
    22    3    1 1  
    23    4    2 1  
    24    6   23 1  
    25    7   24 1  
    26   11   25 1  
    27   12   26 1  
    28   12   27 1  
    29   14   28 1  
    30   18   29 1  
    31   19   30 1  
    32   20   31 1  
    33   21   32 1  
    34   22   33 1  
    35   14   34 1  
@<TRIPOS>SUBSTRUCTURE
     1 SUB1        1 GROUP

