1g4o_ligand
  -I-interpret- 

 34 35  0  0  0  0  0  0  0  0999 V2000
   -2.8513    3.5957   14.2679 H   0  0  0  0  0
   -3.5642    1.5207   15.4632 H   0  0  0  0  0
   -3.8480    3.5450   14.6910 C   0  0  0  0  0
   -4.2370    2.3650   15.3650 C   0  0  0  0  0
   -5.5740    2.3350   15.9180 C   0  0  0  0  0
   -6.4120    3.4700   15.7530 C   0  0  0  0  0
   -5.9770    4.6190   15.0710 C   0  0  0  0  0
   -4.7000    4.6590   14.5450 C   0  0  0  0  0
   -4.1860    5.8880   13.8100 C   0  0  0  0  0
   -4.9130    6.8570   13.6790 O   0  0  0  0  0
   -2.8950    5.8980   13.3010 N   0  0  0  0  0
   -2.2190    6.9700   12.5800 C   0  0  0  0  0
   -6.0590    0.8320   16.7840 S   0  0  0  0  0
   -5.6290   -0.5400   16.0950 N   0  0  0  0  0
   -7.5390    1.0910   16.8390 O   0  0  0  0  0
   -5.5270    1.1290   18.0940 O   0  0  0  0  0
   -1.4690    7.9020   13.3820 C   0  0  0  0  0
   -1.8430    8.0700   14.7660 C   0  0  0  0  0
   -1.1590    8.9730   15.6310 C   0  0  0  0  0
   -0.0750    9.7300   15.1060 C   0  0  0  0  0
    0.3390    9.5950   13.7200 C   0  0  0  0  0
   -0.3680    8.6670   12.8410 C   0  0  0  0  0
   -7.4146    3.4492   16.1645 H   0  0  0  0  0
   -6.6397    5.4694   14.9582 H   0  0  0  0  0
   -2.3611    5.0651   13.4471 H   0  0  0  0  0
   -2.9836    7.5393   12.0310 H   0  0  0  0  0
   -1.5231    6.5067   11.8651 H   0  0  0  0  0
   -5.8691   -1.4182   16.5276 H   0  0  0  0  0
   -2.6704    7.4910   15.1600 H   0  0  0  0  0
   -1.4585    9.0807   16.6672 H   0  0  0  0  0
    0.4526   10.4214   15.7530 H   0  0  0  0  0
    1.1686   10.1801   13.3400 H   0  0  0  0  0
   -0.0731    8.5542   11.8040 H   0  0  0  0  0
   -5.1211   -0.5293   15.2337 H   0  0  0  0  0
  3  8  4  0  0  0
  3  4  4  0  0  0
  4  5  4  0  0  0
  5 13  1  0  0  0
  5  6  4  0  0  0
  6  7  4  0  0  0
  7  8  4  0  0  0
  8  9  1  0  0  0
  9 11  1  0  0  0
  9 10  2  0  0  0
 11 12  1  0  0  0
 12 17  1  0  0  0
 17 22  4  0  0  0
 17 18  4  0  0  0
 18 19  4  0  0  0
 19 20  4  0  0  0
 20 21  4  0  0  0
 21 22  4  0  0  0
 13 16  2  0  0  0
 13 15  2  0  0  0
 13 14  1  0  0  0
  3  1  1  0  0  0
  4  2  1  0  0  0
  6 23  1  0  0  0
  7 24  1  0  0  0
 11 25  1  0  0  0
 12 26  1  0  0  0
 12 27  1  0  0  0
 14 28  1  0  0  0
 18 29  1  0  0  0
 19 30  1  0  0  0
 20 31  1  0  0  0
 21 32  1  0  0  0
 22 33  1  0  0  0
 14 34  1  0  0  0
M  END
$$$$
