### 
### Created by X-TOOL on Sun Jun  3 12:17:37 2007
### 

@<TRIPOS>MOLECULE
2f7p_ligand
   38    39     1     0     0
SMALL
GAST_HUCK


@<TRIPOS>ATOM
      1 C5         31.3020   66.1950    9.0630 C.3       1 SUB1        0.022
      2 N5         31.1040   64.8680    9.6610 N.4       1 SUB1        0.244
      3 C4         32.7860   66.5780    9.0790 C.3       1 SUB1        0.127
      4 O4         33.6320   65.5030    9.5100 O.3       1 SUB1       -0.384
      5 C3         33.1520   67.0770    7.6940 C.3       1 SUB1        0.113
      6 O3         33.7860   66.0820    6.9070 O.3       1 SUB1       -0.386
      7 C2         31.7850   67.3730    7.0690 C.3       1 SUB1        0.101
      8 O2         31.7250   67.5970    5.6690 O.3       1 SUB1       -0.388
      9 C1         30.9320   66.2310    7.5900 C.3       1 SUB1        0.079
     10 S6         29.1720   66.3690    7.3850 S.3       1 SUB1       -0.152
     11 C7         28.5300   68.0320    7.6240 C.3       1 SUB1       -0.018
     12 C8         29.7680   64.2680    9.7680 C.3       1 SUB1        0.001
     13 C9         28.9780   64.5820   11.0560 C.ar      1 SUB1        0.001
     14 C14        28.2240   65.7460   11.0990 C.ar      1 SUB1       -0.055
     15 C13        27.5150   66.0230   12.2820 C.ar      1 SUB1       -0.068
     16 C10        29.0130   63.7240   12.1650 C.ar      1 SUB1       -0.055
     17 C11        28.3120   64.0040   13.3530 C.ar      1 SUB1       -0.068
     18 C12        27.5400   65.1880   13.4060 C.ar      1 SUB1       -0.069
     19 H          30.6743   66.8651    9.6504 H         1 SUB1        0.089
     20 H          31.3945   64.9916   10.6309 H         1 SUB1        0.203
     21 H          31.6040   64.2397    9.0320 H         1 SUB1        0.203
     22 H          32.9475   67.3677    9.8127 H         1 SUB1        0.068
     23 H          33.5273   64.7567    8.9153 H         1 SUB1        0.210
     24 H          33.8424   67.9190    7.7442 H         1 SUB1        0.065
     25 H          34.5934   65.7979    7.3419 H         1 SUB1        0.210
     26 H          31.4247   68.3587    7.3634 H         1 SUB1        0.063
     27 H          32.0470   66.8192    5.2075 H         1 SUB1        0.210
     28 H          31.1390   65.3270    7.0172 H         1 SUB1        0.049
     29 H          28.7622   68.3680    8.6346 H         1 SUB1        0.034
     30 H          28.9906   68.7053    6.9011 H         1 SUB1        0.034
     31 H          27.4495   68.0270    7.4807 H         1 SUB1        0.034
     32 H          29.9188   63.1885    9.7602 H         1 SUB1        0.098
     33 H          29.1835   64.6803    8.9455 H         1 SUB1        0.098
     34 H          28.1825   66.4226   10.2454 H         1 SUB1        0.056
     35 H          26.9164   66.9328   12.3260 H         1 SUB1        0.060
     36 H          29.6030   62.8095   12.1048 H         1 SUB1        0.056
     37 H          28.3626   63.3284   14.2069 H         1 SUB1        0.060
     38 H          26.9764   65.4451   14.3028 H         1 SUB1        0.056
@<TRIPOS>BOND
     1    1    2 1  
     2    1    3 1  
     3    1    9 1  
     4    2   12 1  
     5    3    4 1  
     6    3    5 1  
     7    5    6 1  
     8    5    7 1  
     9    7    8 1  
    10    7    9 1  
    11    9   10 1  
    12   10   11 1  
    13   12   13 1  
    14   13   14 ar 
    15   13   16 ar 
    16   14   15 ar 
    17   15   18 ar 
    18   16   17 ar 
    19   17   18 ar 
    20    1   19 1  
    21    2   20 1  
    22    2   21 1  
    23    3   22 1  
    24    4   23 1  
    25    5   24 1  
    26    6   25 1  
    27    7   26 1  
    28    8   27 1  
    29    9   28 1  
    30   11   29 1  
    31   11   30 1  
    32   11   31 1  
    33   12   32 1  
    34   12   33 1  
    35   14   34 1  
    36   15   35 1  
    37   16   36 1  
    38   17   37 1  
    39   18   38 1  
@<TRIPOS>SUBSTRUCTURE
     1 SUB1        1 GROUP

