2f7p_ligand
  -I-interpret- 

 38 39  0  0  0  0  0  0  0  0999 V2000
   31.3020   66.1950    9.0630 C   0  0  0  0  0
   31.1040   64.8680    9.6610 N   0  3  0  0  0
   32.7860   66.5780    9.0790 C   0  0  0  0  0
   33.6320   65.5030    9.5100 O   0  0  0  0  0
   33.1520   67.0770    7.6940 C   0  0  0  0  0
   33.7860   66.0820    6.9070 O   0  0  0  0  0
   31.7850   67.3730    7.0690 C   0  0  0  0  0
   31.7250   67.5970    5.6690 O   0  0  0  0  0
   30.9320   66.2310    7.5900 C   0  0  0  0  0
   29.1720   66.3690    7.3850 S   0  0  0  0  0
   28.5300   68.0320    7.6240 C   0  0  0  0  0
   29.7680   64.2680    9.7680 C   0  0  0  0  0
   28.9780   64.5820   11.0560 C   0  0  0  0  0
   28.2240   65.7460   11.0990 C   0  0  0  0  0
   27.5150   66.0230   12.2820 C   0  0  0  0  0
   29.0130   63.7240   12.1650 C   0  0  0  0  0
   28.3120   64.0040   13.3530 C   0  0  0  0  0
   27.5400   65.1880   13.4060 C   0  0  0  0  0
   30.6743   66.8651    9.6504 H   0  0  0  0  0
   31.3945   64.9916   10.6309 H   0  0  0  0  0
   31.6040   64.2397    9.0320 H   0  0  0  0  0
   32.9475   67.3677    9.8127 H   0  0  0  0  0
   33.5273   64.7567    8.9153 H   0  0  0  0  0
   33.8424   67.9190    7.7442 H   0  0  0  0  0
   34.5934   65.7979    7.3419 H   0  0  0  0  0
   31.4247   68.3587    7.3634 H   0  0  0  0  0
   32.0470   66.8192    5.2075 H   0  0  0  0  0
   31.1390   65.3270    7.0172 H   0  0  0  0  0
   28.7622   68.3680    8.6346 H   0  0  0  0  0
   28.9906   68.7053    6.9011 H   0  0  0  0  0
   27.4495   68.0270    7.4807 H   0  0  0  0  0
   29.9188   63.1885    9.7602 H   0  0  0  0  0
   29.1835   64.6803    8.9455 H   0  0  0  0  0
   28.1825   66.4226   10.2454 H   0  0  0  0  0
   26.9164   66.9328   12.3260 H   0  0  0  0  0
   29.6030   62.8095   12.1048 H   0  0  0  0  0
   28.3626   63.3284   14.2069 H   0  0  0  0  0
   26.9764   65.4451   14.3028 H   0  0  0  0  0
  1  2  1  0  0  0
  1  3  1  0  0  0
  1  9  1  0  0  0
  2 12  1  0  0  0
  3  4  1  0  0  0
  3  5  1  0  0  0
  5  6  1  0  0  0
  5  7  1  0  0  0
  7  8  1  0  0  0
  7  9  1  0  0  0
  9 10  1  0  0  0
 10 11  1  0  0  0
 12 13  1  0  0  0
 13 14  4  0  0  0
 13 16  4  0  0  0
 14 15  4  0  0  0
 15 18  4  0  0  0
 16 17  4  0  0  0
 17 18  4  0  0  0
  1 19  1  0  0  0
  2 20  1  0  0  0
  2 21  1  0  0  0
  3 22  1  0  0  0
  4 23  1  0  0  0
  5 24  1  0  0  0
  6 25  1  0  0  0
  7 26  1  0  0  0
  8 27  1  0  0  0
  9 28  1  0  0  0
 11 29  1  0  0  0
 11 30  1  0  0  0
 11 31  1  0  0  0
 12 32  1  0  0  0
 12 33  1  0  0  0
 14 34  1  0  0  0
 15 35  1  0  0  0
 16 36  1  0  0  0
 17 37  1  0  0  0
 18 38  1  0  0  0
M  END
$$$$
