1icj_ligand
  -I-interpret- 

 66 65  0  0  0  0  0  0  0  0999 V2000
   31.5930   37.8640   77.3400 O   0  0  0  0  0
   32.7220   38.6250   77.8210 C   0  0  0  0  0
   33.2650   39.5420   76.6910 C   0  0  0  0  0
   34.0800   38.7760   75.7890 O   0  0  0  0  0
   33.4030   38.6190   74.5350 C   0  0  0  0  0
   32.9820   37.1340   74.3590 C   0  0  0  0  0
   33.1620   36.7270   72.9870 O   0  0  0  0  0
   33.9580   35.5330   72.9470 C   0  0  0  0  0
   35.2910   35.8630   72.2860 C   0  0  0  0  0
   35.8300   34.6900   71.6800 O   0  0  0  0  0
   36.5270   35.0520   70.4860 C   0  0  0  0  0
   37.9410   35.4510   70.8210 C   0  0  0  0  0
   37.9120   36.6720   71.5500 O   0  0  0  0  0
   39.2190   37.2430   71.5720 C   0  0  0  0  0
   39.1100   38.7760   71.4810 C   0  0  0  0  0
   38.3540   39.3020   72.5870 O   0  0  0  0  0
   37.1910   39.9600   72.0860 C   0  0  0  0  0
   36.6810   40.9670   73.1200 C   0  0  0  0  0
   35.2870   40.7370   73.3840 O   0  0  0  0  0
   34.4980   41.1640   72.2560 C   0  0  0  0  0
   34.2290   42.6820   72.3390 C   0  0  0  0  0
   33.0790   42.9350   73.1700 O   0  0  0  0  0
   33.4810   43.6300   74.3650 C   0  0  0  0  0
   33.2950   45.1460   74.1690 C   0  0  0  0  0
   34.1310   45.6080   73.0770 O   0  0  0  0  0
   33.3240   46.2780   72.0700 C   0  0  0  0  0
   33.6270   45.7220   70.6550 C   0  0  0  0  0
   32.6460   44.7310   70.3040 O   0  0  0  0  0
   31.2680   37.3066   78.0373 H   0  0  0  0  0
   32.4111   39.2541   78.6681 H   0  0  0  0  0
   33.5231   37.9404   78.1364 H   0  0  0  0  0
   32.4248   39.9748   76.1283 H   0  0  0  0  0
   33.8777   40.3449   77.1268 H   0  0  0  0  0
   32.5020   39.2496   74.5155 H   0  0  0  0  0
   34.0748   38.8992   73.7103 H   0  0  0  0  0
   33.6044   36.4941   75.0017 H   0  0  0  0  0
   31.9216   37.0157   74.6262 H   0  0  0  0  0
   34.1425   35.1681   73.9681 H   0  0  0  0  0
   33.4459   34.7576   72.3584 H   0  0  0  0  0
   35.1420   36.6274   71.5093 H   0  0  0  0  0
   36.0005   36.2300   73.0422 H   0  0  0  0  0
   36.5543   34.1947   69.7974 H   0  0  0  0  0
   36.0230   35.9033   70.0052 H   0  0  0  0  0
   38.4143   34.6745   71.4398 H   0  0  0  0  0
   38.5192   35.5982   69.8969 H   0  0  0  0  0
   39.7266   36.9772   72.5109 H   0  0  0  0  0
   39.8011   36.8758   70.7140 H   0  0  0  0  0
   40.1172   39.2175   71.5044 H   0  0  0  0  0
   38.6008   39.0528   70.5461 H   0  0  0  0  0
   37.4384   40.4979   71.1590 H   0  0  0  0  0
   36.4004   39.2205   71.8910 H   0  0  0  0  0
   37.2425   40.8510   74.0587 H   0  0  0  0  0
   36.8037   41.9895   72.7335 H   0  0  0  0  0
   35.0412   40.9524   71.3232 H   0  0  0  0  0
   33.5340   40.6342   72.2570 H   0  0  0  0  0
   35.1007   43.1893   72.7780 H   0  0  0  0  0
   34.0318   43.0789   71.3323 H   0  0  0  0  0
   32.8610   43.3026   75.2125 H   0  0  0  0  0
   34.5413   43.4264   74.5753 H   0  0  0  0  0
   32.2442   45.3629   73.9269 H   0  0  0  0  0
   33.5858   45.6775   75.0871 H   0  0  0  0  0
   32.2580   46.1160   72.2877 H   0  0  0  0  0
   33.5489   47.3547   72.0774 H   0  0  0  0  0
   33.5870   46.5378   69.9182 H   0  0  0  0  0
   34.6229   45.2552   70.6440 H   0  0  0  0  0
   32.6747   44.0213   70.9348 H   0  0  0  0  0
  1  2  1  0  0  0
  2  3  1  0  0  0
  3  4  1  0  0  0
  4  5  1  0  0  0
  5  6  1  0  0  0
  6  7  1  0  0  0
  7  8  1  0  0  0
  8  9  1  0  0  0
  9 10  1  0  0  0
 10 11  1  0  0  0
 11 12  1  0  0  0
 12 13  1  0  0  0
 13 14  1  0  0  0
 14 15  1  0  0  0
 15 16  1  0  0  0
 16 17  1  0  0  0
 17 18  1  0  0  0
 18 19  1  0  0  0
 19 20  1  0  0  0
 20 21  1  0  0  0
 21 22  1  0  0  0
 22 23  1  0  0  0
 23 24  1  0  0  0
 24 25  1  0  0  0
 25 26  1  0  0  0
 26 27  1  0  0  0
 27 28  1  0  0  0
  1 29  1  0  0  0
  2 30  1  0  0  0
  2 31  1  0  0  0
  3 32  1  0  0  0
  3 33  1  0  0  0
  5 34  1  0  0  0
  5 35  1  0  0  0
  6 36  1  0  0  0
  6 37  1  0  0  0
  8 38  1  0  0  0
  8 39  1  0  0  0
  9 40  1  0  0  0
  9 41  1  0  0  0
 11 42  1  0  0  0
 11 43  1  0  0  0
 12 44  1  0  0  0
 12 45  1  0  0  0
 14 46  1  0  0  0
 14 47  1  0  0  0
 15 48  1  0  0  0
 15 49  1  0  0  0
 17 50  1  0  0  0
 17 51  1  0  0  0
 18 52  1  0  0  0
 18 53  1  0  0  0
 20 54  1  0  0  0
 20 55  1  0  0  0
 21 56  1  0  0  0
 21 57  1  0  0  0
 23 58  1  0  0  0
 23 59  1  0  0  0
 24 60  1  0  0  0
 24 61  1  0  0  0
 26 62  1  0  0  0
 26 63  1  0  0  0
 27 64  1  0  0  0
 27 65  1  0  0  0
 28 66  1  0  0  0
M  END
$$$$
