### 
### Created by X-TOOL on Mon Oct 24 23:06:54 2005
### 

@<TRIPOS>MOLECULE
1icj_ligand
   66    65     1     0     0
SMALL
GAST_HUCK


@<TRIPOS>ATOM
      1 O1         31.5930   37.8640   77.3400 O.3       1 SUB1       -0.393
      2 C2         32.7220   38.6250   77.8210 C.3       1 SUB1        0.068
      3 C3         33.2650   39.5420   76.6910 C.3       1 SUB1        0.071
      4 O4         34.0800   38.7760   75.7890 O.3       1 SUB1       -0.375
      5 C5         33.4030   38.6190   74.5350 C.3       1 SUB1        0.071
      6 C6         32.9820   37.1340   74.3590 C.3       1 SUB1        0.071
      7 O7         33.1620   36.7270   72.9870 O.3       1 SUB1       -0.375
      8 C8         33.9580   35.5330   72.9470 C.3       1 SUB1        0.071
      9 C9         35.2910   35.8630   72.2860 C.3       1 SUB1        0.071
     10 O10        35.8300   34.6900   71.6800 O.3       1 SUB1       -0.375
     11 C11        36.5270   35.0520   70.4860 C.3       1 SUB1        0.071
     12 C12        37.9410   35.4510   70.8210 C.3       1 SUB1        0.071
     13 O13        37.9120   36.6720   71.5500 O.3       1 SUB1       -0.375
     14 C14        39.2190   37.2430   71.5720 C.3       1 SUB1        0.071
     15 C15        39.1100   38.7760   71.4810 C.3       1 SUB1        0.071
     16 O16        38.3540   39.3020   72.5870 O.3       1 SUB1       -0.375
     17 C17        37.1910   39.9600   72.0860 C.3       1 SUB1        0.071
     18 C18        36.6810   40.9670   73.1200 C.3       1 SUB1        0.071
     19 O19        35.2870   40.7370   73.3840 O.3       1 SUB1       -0.375
     20 C20        34.4980   41.1640   72.2560 C.3       1 SUB1        0.071
     21 C21        34.2290   42.6820   72.3390 C.3       1 SUB1        0.071
     22 O22        33.0790   42.9350   73.1700 O.3       1 SUB1       -0.375
     23 C23        33.4810   43.6300   74.3650 C.3       1 SUB1        0.071
     24 C24        33.2950   45.1460   74.1690 C.3       1 SUB1        0.071
     25 O25        34.1310   45.6080   73.0770 O.3       1 SUB1       -0.375
     26 C26        33.3240   46.2780   72.0700 C.3       1 SUB1        0.071
     27 C27        33.6270   45.7220   70.6550 C.3       1 SUB1        0.068
     28 O28        32.6460   44.7310   70.3040 O.3       1 SUB1       -0.393
     29 H11        31.2680   37.3066   78.0373 H         1 SUB1        0.209
     30 H21        32.4111   39.2541   78.6681 H         1 SUB1        0.058
     31 H22        33.5231   37.9404   78.1364 H         1 SUB1        0.058
     32 H31        32.4248   39.9748   76.1283 H         1 SUB1        0.058
     33 H32        33.8777   40.3449   77.1268 H         1 SUB1        0.058
     34 H51        32.5020   39.2496   74.5155 H         1 SUB1        0.058
     35 H52        34.0748   38.8992   73.7103 H         1 SUB1        0.058
     36 H61        33.6044   36.4941   75.0017 H         1 SUB1        0.058
     37 H62        31.9216   37.0157   74.6262 H         1 SUB1        0.058
     38 H81        34.1425   35.1681   73.9681 H         1 SUB1        0.058
     39 H82        33.4459   34.7576   72.3584 H         1 SUB1        0.058
     40 H91        35.1420   36.6274   71.5093 H         1 SUB1        0.058
     41 H92        36.0005   36.2300   73.0422 H         1 SUB1        0.058
     42 H111       36.5543   34.1947   69.7974 H         1 SUB1        0.058
     43 H112       36.0230   35.9033   70.0052 H         1 SUB1        0.058
     44 H121       38.4143   34.6745   71.4398 H         1 SUB1        0.058
     45 H122       38.5192   35.5982   69.8969 H         1 SUB1        0.058
     46 H141       39.7266   36.9772   72.5109 H         1 SUB1        0.058
     47 H142       39.8011   36.8758   70.7140 H         1 SUB1        0.058
     48 H151       40.1172   39.2175   71.5044 H         1 SUB1        0.058
     49 H152       38.6008   39.0528   70.5461 H         1 SUB1        0.058
     50 H171       37.4384   40.4979   71.1590 H         1 SUB1        0.058
     51 H172       36.4004   39.2205   71.8910 H         1 SUB1        0.058
     52 H181       37.2425   40.8510   74.0587 H         1 SUB1        0.058
     53 H182       36.8037   41.9895   72.7335 H         1 SUB1        0.058
     54 H201       35.0412   40.9524   71.3232 H         1 SUB1        0.058
     55 H202       33.5340   40.6342   72.2570 H         1 SUB1        0.058
     56 H211       35.1007   43.1893   72.7780 H         1 SUB1        0.058
     57 H212       34.0318   43.0789   71.3323 H         1 SUB1        0.058
     58 H231       32.8610   43.3026   75.2125 H         1 SUB1        0.058
     59 H232       34.5413   43.4264   74.5753 H         1 SUB1        0.058
     60 H241       32.2442   45.3629   73.9269 H         1 SUB1        0.058
     61 H242       33.5858   45.6775   75.0871 H         1 SUB1        0.058
     62 H261       32.2580   46.1160   72.2877 H         1 SUB1        0.058
     63 H262       33.5489   47.3547   72.0774 H         1 SUB1        0.058
     64 H271       33.5870   46.5378   69.9182 H         1 SUB1        0.058
     65 H272       34.6229   45.2552   70.6440 H         1 SUB1        0.058
     66 H281       32.6747   44.0213   70.9348 H         1 SUB1        0.209
@<TRIPOS>BOND
     1    1    2 1  
     2    2    3 1  
     3    3    4 1  
     4    4    5 1  
     5    5    6 1  
     6    6    7 1  
     7    7    8 1  
     8    8    9 1  
     9    9   10 1  
    10   10   11 1  
    11   11   12 1  
    12   12   13 1  
    13   13   14 1  
    14   14   15 1  
    15   15   16 1  
    16   16   17 1  
    17   17   18 1  
    18   18   19 1  
    19   19   20 1  
    20   20   21 1  
    21   21   22 1  
    22   22   23 1  
    23   23   24 1  
    24   24   25 1  
    25   25   26 1  
    26   26   27 1  
    27   27   28 1  
    28    1   29 1  
    29    2   30 1  
    30    2   31 1  
    31    3   32 1  
    32    3   33 1  
    33    5   34 1  
    34    5   35 1  
    35    6   36 1  
    36    6   37 1  
    37    8   38 1  
    38    8   39 1  
    39    9   40 1  
    40    9   41 1  
    41   11   42 1  
    42   11   43 1  
    43   12   44 1  
    44   12   45 1  
    45   14   46 1  
    46   14   47 1  
    47   15   48 1  
    48   15   49 1  
    49   17   50 1  
    50   17   51 1  
    51   18   52 1  
    52   18   53 1  
    53   20   54 1  
    54   20   55 1  
    55   21   56 1  
    56   21   57 1  
    57   23   58 1  
    58   23   59 1  
    59   24   60 1  
    60   24   61 1  
    61   26   62 1  
    62   26   63 1  
    63   27   64 1  
    64   27   65 1  
    65   28   66 1  
@<TRIPOS>SUBSTRUCTURE
     1 SUB1        1 GROUP

