1bzh_ligand
  -I-interpret- 

114115  0  0  0  0  0  0  0  0999 V2000
   -9.4620   -3.1850   29.0710 N   0  0  0  0  0
  -10.6110   -3.1350   29.9510 C   0  0  0  0  0
   -9.9450   -2.8640   31.2740 C   0  0  0  0  0
  -10.1130   -1.8140   31.8760 O   0  0  0  0  0
  -11.2420   -4.5360   29.9310 C   0  0  0  0  0
  -10.1710   -5.5500   30.2490 C   0  0  0  0  0
  -10.3600   -6.3920   31.1060 O   0  0  0  0  0
   -9.1000   -5.4440   29.5600 O   0  5  0  0  0
   -9.0430   -3.9250   31.6950 N   0  0  0  0  0
   -8.4020   -3.5390   32.9180 C   0  0  0  0  0
   -7.1270   -2.8380   32.5000 C   0  0  0  0  0
   -6.6920   -2.9840   31.3770 O   0  0  0  0  0
   -8.0950   -4.8010   33.7390 C   0  0  0  0  0
   -6.4480   -2.0200   33.4620 N   0  0  0  0  0
   -5.2460   -1.3780   33.0820 C   0  0  0  0  0
   -4.3780   -2.0850   32.0940 C   0  0  0  0  0
   -3.9730   -1.4790   31.1060 O   0  0  0  0  0
   -4.3610   -1.3400   34.3800 C   0  0  0  0  0
   -3.5020   -0.1100   34.2820 C   0  0  0  0  0
   -2.8740    0.0720   33.2460 O   0  0  0  0  0
   -3.4580    0.7060   35.2580 O   0  5  0  0  0
   -3.9800   -3.4530   32.3620 N   0  0  0  0  0
   -3.0790   -3.9640   31.3720 C   0  0  0  0  0
   -3.6360   -4.8910   30.3210 C   0  0  0  0  0
   -4.3430   -5.7640   30.8610 O   0  0  0  0  0
   -2.0020   -4.7980   32.1130 C   0  0  0  0  0
   -1.3580   -4.1910   33.3230 C   0  0  0  0  0
   -1.6510   -2.8020   33.7390 C   0  0  0  0  0
   -2.0990   -1.8750   32.9710 O   0  5  0  0  0
   -1.4230   -2.4860   34.9090 O   0  0  0  0  0
   -3.3780   -4.9530   28.9460 N   0  0  0  0  0
   -2.7760   -4.3250   27.8550 C   0  0  0  0  0
   -1.2520   -4.4320   27.6140 C   0  0  0  0  0
   -0.8780   -3.8660   26.2350 C   0  0  0  0  0
   -0.5550   -2.5270   26.0550 C   0  0  0  0  0
   -0.2250   -2.0300   24.7830 C   0  0  0  0  0
   -0.8710   -4.7170   25.1270 C   0  0  0  0  0
   -0.5350   -4.2400   23.8720 C   0  0  0  0  0
   -0.2180   -2.8750   23.6800 C   0  0  0  0  0
    0.1120   -2.4680   22.3910 O   0  0  0  0  0
    0.8010   -1.2610   22.1440 C   0  0  0  0  0
    2.1870   -1.1490   22.7240 C   0  0  0  0  0
    0.0320   -0.2010   22.4880 F   0  0  0  0  0
    1.1250   -0.1870   20.0630 O   0  0  0  0  0
    1.2510   -2.4910   20.2660 O   0  5  0  0  0
    2.4520   -0.0220   23.3840 O   0  5  0  0  0
    3.0660   -1.9710   22.5420 O   0  0  0  0  0
    1.0610   -1.2160   20.6460 C   0  0  0  0  0
   -3.7150   -4.3730   25.6360 O   0  0  0  0  0
   -3.3280   -4.9900   26.5900 C   0  0  0  0  0
   -3.3040   -6.4310   26.6380 N   0  0  0  0  0
   -3.8490   -7.0710   25.4820 C   0  0  0  0  0
   -5.3570   -7.0350   25.6560 C   0  0  0  0  0
   -5.8240   -8.0300   26.1800 O   0  0  0  0  0
   -3.5140   -8.5730   25.4410 C   0  0  0  0  0
   -2.1260   -8.8280   24.8100 C   0  0  0  0  0
   -1.5780  -10.0770   25.5400 C   0  0  0  0  0
   -2.2900   -9.1490   23.3170 C   0  0  0  0  0
   -6.0160   -5.8670   25.1800 N   0  0  0  0  0
   -7.4290   -5.7260   25.3430 C   0  0  0  0  0
   -7.8560   -5.9350   26.8210 C   0  0  0  0  0
   -8.3530   -6.3100   24.3360 C   0  0  0  0  0
   -8.8890   -7.6430   24.4730 N   0  0  0  0  0
   -7.3700   -4.3520   27.5930 S   0  0  0  0  0
   -8.6190   -3.3140   26.7420 C   0  0  0  0  0
  -10.9730   -3.2560   27.3120 O   0  0  0  0  0
   -9.8080   -3.2510   27.6750 C   0  0  0  0  0
   -8.7080   -5.6280   23.3690 O   0  0  0  0  0
   -8.5182   -3.1747   29.4014 H   0  0  0  0  0
  -11.3414   -2.3593   29.6774 H   0  0  0  0  0
  -11.6611   -4.7396   28.9346 H   0  0  0  0  0
  -12.0419   -4.5931   30.6840 H   0  0  0  0  0
   -8.8939   -4.7861   31.2089 H   0  0  0  0  0
   -9.0421   -2.8606   33.5011 H   0  0  0  0  0
   -7.6026   -4.5153   34.6802 H   0  0  0  0  0
   -7.4296   -5.4606   33.1626 H   0  0  0  0  0
   -9.0330   -5.3306   33.9620 H   0  0  0  0  0
   -6.8171   -1.9054   34.3843 H   0  0  0  0  0
   -5.4779   -0.3684   32.7120 H   0  0  0  0  0
   -3.7301   -2.2394   34.4351 H   0  0  0  0  0
   -5.0005   -1.2854   35.2733 H   0  0  0  0  0
   -4.2985   -3.9808   33.1494 H   0  0  0  0  0
   -2.6165   -3.1053   30.8633 H   0  0  0  0  0
   -1.2019   -5.0167   31.3905 H   0  0  0  0  0
   -2.4763   -5.7382   32.4307 H   0  0  0  0  0
   -0.2721   -4.2423   33.1554 H   0  0  0  0  0
   -1.6285   -4.8335   34.1739 H   0  0  0  0  0
   -3.7986   -5.7940   28.6057 H   0  0  0  0  0
   -3.0470   -3.2598   27.8988 H   0  0  0  0  0
   -0.9521   -5.4892   27.6636 H   0  0  0  0  0
   -0.7226   -3.8637   28.3930 H   0  0  0  0  0
   -0.5576   -1.8569   26.9070 H   0  0  0  0  0
    0.0253   -0.9823   24.6615 H   0  0  0  0  0
   -1.1315   -5.7618   25.2516 H   0  0  0  0  0
   -0.5146   -4.9194   23.0276 H   0  0  0  0  0
   -2.9364   -6.9405   27.4159 H   0  0  0  0  0
   -3.5195   -6.5645   24.5628 H   0  0  0  0  0
   -4.2783   -9.0934   24.8451 H   0  0  0  0  0
   -3.5177   -8.9680   26.4676 H   0  0  0  0  0
   -1.4616   -7.9619   24.9454 H   0  0  0  0  0
   -0.5825  -10.3259   25.1437 H   0  0  0  0  0
   -2.2597  -10.9250   25.3780 H   0  0  0  0  0
   -1.5021   -9.8682   26.6173 H   0  0  0  0  0
   -2.6796   -8.2641   22.7924 H   0  0  0  0  0
   -2.9938   -9.9858   23.1970 H   0  0  0  0  0
   -1.3141   -9.4269   22.8923 H   0  0  0  0  0
   -5.4902   -5.1444   24.7312 H   0  0  0  0  0
   -7.5783   -4.6477   25.1852 H   0  0  0  0  0
   -7.3194   -6.7811   27.2750 H   0  0  0  0  0
   -8.9402   -6.1020   26.9028 H   0  0  0  0  0
   -9.5086   -8.0067   23.7774 H   0  0  0  0  0
   -8.6408   -8.2029   25.2635 H   0  0  0  0  0
   -8.9079   -3.7706   25.7839 H   0  0  0  0  0
   -8.2198   -2.3050   26.5618 H   0  0  0  0  0
  2  3  1  0  0  0
  2  5  1  0  0  0
  1  2  1  0  0  0
  5  6  1  0  0  0
  6  7  2  0  0  0
  6  8  1  0  0  0
  3  4  2  0  0  0
 10 11  1  0  0  0
 10 13  1  0  0  0
  9 10  1  0  0  0
 11 12  2  0  0  0
 15 16  1  0  0  0
 15 18  1  0  0  0
 14 15  1  0  0  0
 18 19  1  0  0  0
 19 20  2  0  0  0
 19 21  1  0  0  0
 16 17  2  0  0  0
 23 24  1  0  0  0
 23 26  1  0  0  0
 22 23  1  0  0  0
 26 27  1  0  0  0
 27 28  1  0  0  0
 28 29  1  0  0  0
 28 30  2  0  0  0
 24 25  2  0  0  0
 31 32  1  0  0  0
 32 50  1  0  0  0
 32 33  1  0  0  0
 33 34  1  0  0  0
 34 37  4  0  0  0
 34 35  4  0  0  0
 35 36  4  0  0  0
 36 39  4  0  0  0
 39 40  1  0  0  0
 38 39  4  0  0  0
 37 38  4  0  0  0
 40 41  1  0  0  0
 41 48  1  0  0  0
 41 43  1  0  0  0
 41 42  1  0  0  0
 42 47  2  0  0  0
 42 46  1  0  0  0
 48 44  2  0  0  0
 48 45  1  0  0  0
 50 49  2  0  0  0
 53 52  1  0  0  0
 52 55  1  0  0  0
 52 51  1  0  0  0
 55 56  1  0  0  0
 56 58  1  0  0  0
 56 57  1  0  0  0
 53 54  2  0  0  0
 59 60  1  0  0  0
 60 62  1  0  0  0
 60 61  1  0  0  0
 61 64  1  0  0  0
 64 65  1  0  0  0
 65 67  1  0  0  0
 67 66  2  0  0  0
 62 68  2  0  0  0
 62 63  1  0  0  0
  3  9  1  0  0  0
 11 14  1  0  0  0
 16 22  1  0  0  0
 67  1  1  0  0  0
 24 31  1  0  0  0
 59 53  1  0  0  0
 50 51  1  0  0  0
  1 69  1  0  0  0
  2 70  1  0  0  0
  5 71  1  0  0  0
  5 72  1  0  0  0
  9 73  1  0  0  0
 10 74  1  0  0  0
 13 75  1  0  0  0
 13 76  1  0  0  0
 13 77  1  0  0  0
 14 78  1  0  0  0
 15 79  1  0  0  0
 18 80  1  0  0  0
 18 81  1  0  0  0
 22 82  1  0  0  0
 23 83  1  0  0  0
 26 84  1  0  0  0
 26 85  1  0  0  0
 27 86  1  0  0  0
 27 87  1  0  0  0
 31 88  1  0  0  0
 32 89  1  0  0  0
 33 90  1  0  0  0
 33 91  1  0  0  0
 35 92  1  0  0  0
 36 93  1  0  0  0
 37 94  1  0  0  0
 38 95  1  0  0  0
 51 96  1  0  0  0
 52 97  1  0  0  0
 55 98  1  0  0  0
 55 99  1  0  0  0
 56100  1  0  0  0
 57101  1  0  0  0
 57102  1  0  0  0
 57103  1  0  0  0
 58104  1  0  0  0
 58105  1  0  0  0
 58106  1  0  0  0
 59107  1  0  0  0
 60108  1  0  0  0
 61109  1  0  0  0
 61110  1  0  0  0
 63111  1  0  0  0
 63112  1  0  0  0
 65113  1  0  0  0
 65114  1  0  0  0
M  END
$$$$
