### 
### Created by X-TOOL on Tue Oct 25 00:27:28 2005
### 

@<TRIPOS>MOLECULE
1ohr_ligand
   85    88     1     0     0
SMALL
GAST_HUCK


@<TRIPOS>ATOM
      1 C1          2.6450   -4.1530   16.3150 C.3       1 SUB1       -0.025
      2 C2          3.4610   -5.4530   16.5930 C.3       1 SUB1       -0.034
      3 C3          2.6850   -6.6860   16.1660 C.3       1 SUB1       -0.050
      4 C4          2.2720   -6.5480   14.7110 C.3       1 SUB1       -0.053
      5 C5          1.4340   -5.2770   14.5060 C.3       1 SUB1       -0.053
      6 C6          2.2930   -4.0120   14.8260 C.3       1 SUB1       -0.049
      7 N7          4.7380   -2.8460   16.0410 N.3       1 SUB1       -0.280
      8 C8          5.5780   -4.0310   16.3220 C.3       1 SUB1        0.101
      9 C9          4.8280   -5.3230   15.8890 C.3       1 SUB1       -0.017
     10 C10         3.4830   -2.9590   16.8210 C.3       1 SUB1        0.005
     11 C11         6.8480   -3.9550   15.5210 C.2       1 SUB1        0.194
     12 N12         7.8860   -4.4650   16.2330 N.am      1 SUB1       -0.280
     13 C13         9.2890   -4.5340   15.7600 C.3       1 SUB1        0.045
     14 C14         9.8340   -3.1580   15.4200 C.3       1 SUB1       -0.040
     15 C15         9.3340   -5.4090   14.4700 C.3       1 SUB1       -0.040
     16 C16        10.1210   -5.1180   16.9370 C.3       1 SUB1       -0.040
     17 O17         6.8300   -3.5380   14.3450 O.2       1 SUB1       -0.395
     18 C18         5.3380   -1.5960   16.5180 C.3       1 SUB1        0.030
     19 C19         4.8200   -0.4460   15.6410 C.3       1 SUB1        0.092
     20 C20         5.5120   -0.3020   14.2830 C.3       1 SUB1        0.079
     21 O21         5.0320    0.7290   16.4330 O.3       1 SUB1       -0.388
     22 N22         4.7580    0.7430   13.6060 N.am      1 SUB1       -0.281
     23 C23         6.9320    0.1830   14.3100 C.3       1 SUB1        0.032
     24 C24         3.8790    0.3930   12.6450 C.2       1 SUB1        0.198
     25 O25         3.7100   -0.7870   12.3060 O.2       1 SUB1       -0.389
     26 C29         3.1980    1.4880   11.9920 C.ar      1 SUB1        0.043
     27 C30         3.9390    2.5960   11.5220 C.ar      1 SUB1       -0.060
     28 C31         3.3240    3.6870   10.9180 C.ar      1 SUB1       -0.072
     29 C32         1.9510    3.6590   10.7530 C.ar      1 SUB1       -0.036
     30 C33         1.2060    2.5700   11.2290 C.ar      1 SUB1        0.095
     31 C34         1.8060    1.4600   11.8290 C.ar      1 SUB1        0.004
     32 O38        -0.1640    2.6190   11.2010 O.3       1 SUB1       -0.336
     33 C39         0.9350    0.3430   12.3340 C.3       1 SUB1       -0.029
     34 S74         7.7470   -0.2420   12.7580 S.3       1 SUB1       -0.099
     35 C77         7.7040    1.2030   11.8200 C.ar      1 SUB1        0.015
     36 C78         7.9680    1.0620   10.4640 C.ar      1 SUB1       -0.050
     37 C79         7.9720    2.2040    9.6860 C.ar      1 SUB1       -0.068
     38 C80         7.7140    3.4510   10.2640 C.ar      1 SUB1       -0.069
     39 C81         7.4430    3.5800   11.6300 C.ar      1 SUB1       -0.068
     40 C82         7.4360    2.4280   12.4120 C.ar      1 SUB1       -0.050
     41 H11         1.7051   -4.1943   16.8849 H         1 SUB1        0.032
     42 H21         3.6389   -5.5304   17.6757 H         1 SUB1        0.031
     43 H31         1.7873   -6.7893   16.7933 H         1 SUB1        0.027
     44 H32         3.3192   -7.5770   16.2838 H         1 SUB1        0.027
     45 H41         1.6757   -7.4252   14.4195 H         1 SUB1        0.026
     46 H42         3.1733   -6.4921   14.0829 H         1 SUB1        0.026
     47 H51         0.5619   -5.3039   15.1759 H         1 SUB1        0.026
     48 H52         1.0926   -5.2305   13.4614 H         1 SUB1        0.026
     49 H61         3.2047   -3.9953   14.2108 H         1 SUB1        0.027
     50 H62         1.7140   -3.0937   14.6485 H         1 SUB1        0.027
     51 H81         5.8111   -4.0720   17.3962 H         1 SUB1        0.071
     52 H91         4.6674   -5.2942   14.8012 H         1 SUB1        0.031
     53 H92         5.4455   -6.1964   16.1455 H         1 SUB1        0.031
     54 H101        3.7277   -3.1110   17.8826 H         1 SUB1        0.043
     55 H102        2.9006   -2.0327   16.7080 H         1 SUB1        0.043
     56 H121        7.6886   -4.8212   17.1463 H         1 SUB1        0.186
     57 H141       10.8740   -3.2508   15.0740 H         1 SUB1        0.025
     58 H142        9.8009   -2.5191   16.3148 H         1 SUB1        0.025
     59 H143        9.2219   -2.7074   14.6248 H         1 SUB1        0.025
     60 H151       10.3698   -5.4708   14.1049 H         1 SUB1        0.025
     61 H152        8.6989   -4.9538   13.6958 H         1 SUB1        0.025
     62 H153        8.9652   -6.4196   14.6993 H         1 SUB1        0.025
     63 H161       11.1772   -5.1914   16.6384 H         1 SUB1        0.025
     64 H162        9.7420   -6.1184   17.1930 H         1 SUB1        0.025
     65 H163       10.0324   -4.4573   17.8120 H         1 SUB1        0.025
     66 H181        6.4337   -1.6568   16.4423 H         1 SUB1        0.045
     67 H182        5.0519   -1.4224   17.5659 H         1 SUB1        0.045
     68 H191        3.7446   -0.5894   15.4593 H         1 SUB1        0.063
     69 H201        5.4634   -1.2580   13.7410 H         1 SUB1        0.059
     70 H211        4.7328    1.4918   15.9523 H         1 SUB1        0.210
     71 H221        4.8896    1.7040   13.8493 H         1 SUB1        0.185
     72 H231        7.4655   -0.2931   15.1458 H         1 SUB1        0.043
     73 H232        6.9433    1.2750   14.4422 H         1 SUB1        0.043
     74 H271        5.0170    2.5952   11.6356 H         1 SUB1        0.056
     75 H281        3.9062    4.5385   10.5847 H         1 SUB1        0.054
     76 H291        1.4495    4.4807   10.2546 H         1 SUB1        0.056
     77 H321       -0.5160    1.8108   11.5552 H         1 SUB1        0.246
     78 H331        1.5658   -0.4439   12.7731 H         1 SUB1        0.038
     79 H332        0.3547   -0.0758   11.4987 H         1 SUB1        0.038
     80 H333        0.2475    0.7316   13.0997 H         1 SUB1        0.038
     81 H361        8.1645    0.0882   10.0301 H         1 SUB1        0.056
     82 H371        8.1759    2.1330    8.6237 H         1 SUB1        0.060
     83 H381        7.7243    4.3370    9.6396 H         1 SUB1        0.056
     84 H391        7.2437    4.5512   12.0683 H         1 SUB1        0.060
     85 H401        7.2231    2.4881   13.4732 H         1 SUB1        0.056
@<TRIPOS>BOND
     1    1   10 1  
     2    1    6 1  
     3    1    2 1  
     4    2    9 1  
     5    2    3 1  
     6    3    4 1  
     7    4    5 1  
     8    5    6 1  
     9    9    8 1  
    10    8   11 1  
    11    8    7 1  
    12    7   18 1  
    13    7   10 1  
    14   18   19 1  
    15   19   21 1  
    16   19   20 1  
    17   20   23 1  
    18   20   22 1  
    19   22   24 am 
    20   24   26 1  
    21   24   25 2  
    22   26   31 ar 
    23   26   27 ar 
    24   27   28 ar 
    25   28   29 ar 
    26   29   30 ar 
    27   30   32 1  
    28   30   31 ar 
    29   31   33 1  
    30   23   34 1  
    31   34   35 1  
    32   35   40 ar 
    33   35   36 ar 
    34   36   37 ar 
    35   37   38 ar 
    36   38   39 ar 
    37   39   40 ar 
    38   11   17 2  
    39   11   12 am 
    40   12   13 1  
    41   13   16 1  
    42   13   15 1  
    43   13   14 1  
    44    1   41 1  
    45    2   42 1  
    46    3   43 1  
    47    3   44 1  
    48    4   45 1  
    49    4   46 1  
    50    5   47 1  
    51    5   48 1  
    52    6   49 1  
    53    6   50 1  
    54    8   51 1  
    55    9   52 1  
    56    9   53 1  
    57   10   54 1  
    58   10   55 1  
    59   12   56 1  
    60   14   57 1  
    61   14   58 1  
    62   14   59 1  
    63   15   60 1  
    64   15   61 1  
    65   15   62 1  
    66   16   63 1  
    67   16   64 1  
    68   16   65 1  
    69   18   66 1  
    70   18   67 1  
    71   19   68 1  
    72   20   69 1  
    73   21   70 1  
    74   22   71 1  
    75   23   72 1  
    76   23   73 1  
    77   27   74 1  
    78   28   75 1  
    79   29   76 1  
    80   32   77 1  
    81   33   78 1  
    82   33   79 1  
    83   33   80 1  
    84   36   81 1  
    85   37   82 1  
    86   38   83 1  
    87   39   84 1  
    88   40   85 1  
@<TRIPOS>SUBSTRUCTURE
     1 SUB1        1 GROUP

