1abf_ligand
  -I-interpret- 

 23 23  0  0  0  0  0  0  0  0999 V2000
   14.2200   56.9530   55.1730 C   0  0  0  0  0
   12.7840   57.2190   54.8070 C   0  0  0  0  0
   12.2730   56.2710   53.7800 C   0  0  0  0  0
   13.1220   56.4430   52.5260 C   0  0  0  0  0
   14.6030   56.1780   52.8770 C   0  0  0  0  0
   15.6060   56.4290   51.7640 C   0  0  0  0  0
   14.4030   55.7180   55.7330 O   0  0  0  0  0
   11.9520   57.2620   56.0600 O   0  0  0  0  0
   10.8700   56.5300   53.4920 O   0  0  0  0  0
   12.9720   57.7720   51.9890 O   0  0  0  0  0
   15.0190   57.0540   53.9120 O   0  0  0  0  0
   14.5568   57.7170   55.8891 H   0  0  0  0  0
   12.7407   58.2211   54.3555 H   0  0  0  0  0
   12.3743   55.2406   54.1513 H   0  0  0  0  0
   12.7949   55.7151   51.7690 H   0  0  0  0  0
   14.6887   55.1320   53.2066 H   0  0  0  0  0
   16.6203   56.2082   52.1278 H   0  0  0  0  0
   15.5501   57.4819   51.4506 H   0  0  0  0  0
   15.3740   55.7787   50.9077 H   0  0  0  0  0
   14.1167   55.0490   55.1223 H   0  0  0  0  0
   11.0673   57.5308   55.8422 H   0  0  0  0  0
   10.7721   57.4199   53.1744 H   0  0  0  0  0
   12.0589   57.9253   51.7765 H   0  0  0  0  0
  1  2  1  0  0  0
  1  7  1  0  0  0
  1 11  1  0  0  0
  2  3  1  0  0  0
  2  8  1  0  0  0
  3  4  1  0  0  0
  3  9  1  0  0  0
  4  5  1  0  0  0
  4 10  1  0  0  0
  5  6  1  0  0  0
  5 11  1  0  0  0
  1 12  1  0  0  0
  2 13  1  0  0  0
  3 14  1  0  0  0
  4 15  1  0  0  0
  5 16  1  0  0  0
  6 17  1  0  0  0
  6 18  1  0  0  0
  6 19  1  0  0  0
  7 20  1  0  0  0
  8 21  1  0  0  0
  9 22  1  0  0  0
 10 23  1  0  0  0
M  END
$$$$
