### 
### Created by X-TOOL on Tue Oct 25 01:47:04 2005
### 

@<TRIPOS>MOLECULE
1ctu_ligand
   31    32     1     0     0
SMALL
GAST_HUCK


@<TRIPOS>ATOM
      1 N1         35.1760   48.8550    8.8900 N.am      1 SUB1       -0.193
      2 C2         36.0940   48.2050    8.1940 C.2       1 SUB1        0.293
      3 O2         37.2580   48.5670    8.2660 O.2       1 SUB1       -0.391
      4 N3         35.7390   47.1540    7.4380 N.am      1 SUB1       -0.238
      5 C4         34.3800   46.6730    7.4230 C.3       1 SUB1        0.147
      6 O4         33.6480   46.6550    5.9060 O.3       1 SUB1       -0.365
      7 C5         33.4350   47.4890    8.2280 C.2       1 SUB1       -0.043
      8 C6         33.8780   48.5480    8.9090 C.2       1 SUB1        0.019
      9 C1'        35.6250   50.3520    9.3640 C.3       1 SUB1        0.194
     10 C2'        35.6860   51.7990    8.9430 C.3       1 SUB1        0.136
     11 O2'        36.7200   51.9350    7.9190 O.3       1 SUB1       -0.384
     12 C3'        36.0410   52.3940   10.2510 C.3       1 SUB1        0.114
     13 O3'        37.4110   52.6530   10.3730 O.3       1 SUB1       -0.386
     14 C4'        35.6040   51.3710   11.2880 C.3       1 SUB1        0.113
     15 O4'        35.8610   50.0870   10.7360 O.3       1 SUB1       -0.339
     16 C5'        34.2540   51.5510   11.8270 C.3       1 SUB1        0.073
     17 O5'        33.4930   51.9820   10.7060 O.3       1 SUB1       -0.392
     18 H41        36.4286   46.6972    6.8760 H         1 SUB1        0.190
     19 H51        34.4021   45.6481    7.8219 H         1 SUB1        0.093
     20 H61        32.7605   46.3262    5.9878 H         1 SUB1        0.214
     21 H71        32.3796   47.2228    8.2625 H         1 SUB1        0.026
     22 H81        33.1810   49.1604    9.4792 H         1 SUB1        0.080
     23 H91        36.6514   50.2123    8.9938 H         1 SUB1        0.096
     24 H101       34.7269   52.1819    8.5641 H         1 SUB1        0.067
     25 H111       37.5144   51.5053    8.2137 H         1 SUB1        0.210
     26 H121       35.4902   53.3358   10.3913 H         1 SUB1        0.065
     27 H131       37.6706   53.2927    9.7204 H         1 SUB1        0.210
     28 H141       36.2765   51.4880   12.1506 H         1 SUB1        0.065
     29 H161       34.2477   52.3128   12.6205 H         1 SUB1        0.058
     30 H162       33.8620   50.6035   12.2252 H         1 SUB1        0.058
     31 H171       32.5921   52.1238   10.9719 H         1 SUB1        0.209
@<TRIPOS>BOND
     1    1    9 1  
     2    1    8 am 
     3    1    2 am 
     4    2    4 am 
     5    2    3 2  
     6    4    5 1  
     7    5    7 1  
     8    5    6 1  
     9    7    8 2  
    10    9   15 1  
    11    9   10 1  
    12   10   12 1  
    13   10   11 1  
    14   12   14 1  
    15   12   13 1  
    16   14   16 1  
    17   14   15 1  
    18   16   17 1  
    19    4   18 1  
    20    5   19 1  
    21    6   20 1  
    22    7   21 1  
    23    8   22 1  
    24    9   23 1  
    25   10   24 1  
    26   11   25 1  
    27   12   26 1  
    28   13   27 1  
    29   14   28 1  
    30   16   29 1  
    31   16   30 1  
    32   17   31 1  
@<TRIPOS>SUBSTRUCTURE
     1 SUB1        1 GROUP

