### 
### Created by X-TOOL on Tue Oct 25 01:24:30 2005
### 

@<TRIPOS>MOLECULE
2er9_ligand
  132   135     1     0     0
SMALL
GAST_HUCK


@<TRIPOS>ATOM
      1 OT1        32.9440   -4.9710  -11.3300 O.2       1 SUB1       -0.377
      2 CT1        32.0340   -4.6980  -10.5550 C.2       1 SUB1        0.322
      3 OT2        30.6570   -4.7680  -10.8890 O.3       1 SUB1       -0.258
      4 CT2        30.4470   -5.2750  -12.1930 C.3       1 SUB1        0.090
      5 CT3        30.8750   -4.2200  -13.2280 C.3       1 SUB1       -0.032
      6 CT4        28.9400   -5.5710  -12.3680 C.3       1 SUB1       -0.032
      7 CT5        31.2390   -6.5710  -12.4030 C.3       1 SUB1       -0.032
      8 N          32.2360   -4.2970   -9.3080 N.am      1 SUB1       -0.239
      9 CA         33.5710   -4.3610   -8.6750 C.3       1 SUB1        0.144
     10 C          33.3970   -4.7760   -7.2060 C.2       1 SUB1        0.208
     11 O          33.7020   -3.9880   -6.3210 O.2       1 SUB1       -0.394
     12 CB         34.2240   -2.9720   -8.7110 C.3       1 SUB1        0.043
     13 CG         34.0100   -2.2980  -10.0640 C.2       1 SUB1        0.056
     14 ND1        32.9450   -1.4820  -10.4290 N.pl3     1 SUB1       -0.262
     15 CD2        34.8750   -2.3950  -11.1580 C.2       1 SUB1       -0.028
     16 CE1        33.1420   -1.0770  -11.7500 C.2       1 SUB1        0.087
     17 NE2        34.3380   -1.6410  -12.2010 N.2       1 SUB1       -0.344
     18 N          32.9160   -5.9870   -6.9810 N.am      1 SUB1       -0.250
     19 CA         32.4940   -6.4320   -5.6710 C.3       1 SUB1        0.134
     20 C          33.6560   -6.5580   -4.6880 C.2       1 SUB1        0.204
     21 O          34.8250   -6.5470   -5.0360 O.2       1 SUB1       -0.394
     22 CB         31.9240   -7.7960   -5.9970 C.3       1 SUB1       -0.010
     23 CG         32.5500   -8.2490   -7.2920 C.3       1 SUB1       -0.028
     24 CD         32.7690   -6.9650   -8.0660 C.3       1 SUB1        0.037
     25 N          33.2950   -6.6630   -3.4370 N.am      1 SUB1       -0.262
     26 CA         34.2820   -6.7970   -2.3380 C.3       1 SUB1        0.140
     27 C          33.7670   -7.9640   -1.4570 C.2       1 SUB1        0.206
     28 O          32.5930   -8.0030   -1.2270 O.2       1 SUB1       -0.394
     29 CB         34.1210   -5.5090   -1.4650 C.3       1 SUB1        0.021
     30 CG         34.8830   -4.3720   -2.1480 C.ar      1 SUB1       -0.039
     31 CD1        34.2450   -3.5600   -3.0740 C.ar      1 SUB1       -0.060
     32 CD2        36.2210   -4.1670   -1.8240 C.ar      1 SUB1       -0.060
     33 CE1        34.9460   -2.5290   -3.6890 C.ar      1 SUB1       -0.069
     34 CE2        36.9260   -3.1300   -2.4420 C.ar      1 SUB1       -0.069
     35 CZ         36.2830   -2.3210   -3.3670 C.ar      1 SUB1       -0.069
     36 N          34.6540   -8.8030   -1.0470 N.am      1 SUB1       -0.262
     37 CA         34.4250   -9.8190    0.0040 C.3       1 SUB1        0.142
     38 C          35.5400   -9.7320    1.0430 C.2       1 SUB1        0.204
     39 O          36.6080  -10.2910    0.8830 O.2       1 SUB1       -0.394
     40 CB         34.3650  -11.1730   -0.6570 C.3       1 SUB1        0.043
     41 CG         34.3570  -12.3510    0.2920 C.2       1 SUB1        0.056
     42 ND1        33.9000  -12.3850    1.5950 N.pl3     1 SUB1       -0.262
     43 CD2        34.8320  -13.6320   -0.0450 C.2       1 SUB1       -0.028
     44 CE1        34.0890  -13.6830    2.0850 C.2       1 SUB1        0.087
     45 NE2        34.6520  -14.4270    1.0780 N.2       1 SUB1       -0.344
     46 N          35.2660   -9.0110    2.1230 N.am      1 SUB1       -0.279
     47 CA         36.2400   -8.7630    3.1850 C.3       1 SUB1        0.070
     48 CB         36.7490   -7.3720    3.2110 C.3       1 SUB1       -0.025
     49 CG         37.2040   -6.7510    1.9200 C.3       1 SUB1       -0.045
     50 CD1        37.3720   -5.2440    2.0540 C.3       1 SUB1       -0.063
     51 CD2        38.5740   -7.3000    1.4150 C.3       1 SUB1       -0.063
     52 CH         35.6950   -9.2000    4.5530 C.3       1 SUB1        0.095
     53 OH         34.5450   -8.4800    4.9000 O.3       1 SUB1       -0.387
     54 CM         35.3740  -10.7030    4.5640 C.3       1 SUB1        0.065
     55 C          36.6380  -11.5220    4.7400 C.2       1 SUB1        0.181
     56 O          37.4860  -11.5300    3.8500 O.2       1 SUB1       -0.397
     57 N          36.7890  -12.2010    5.8630 N.am      1 SUB1       -0.266
     58 CA         37.8180  -13.2800    5.9280 C.3       1 SUB1        0.131
     59 C          37.2760  -14.5430    5.2570 C.2       1 SUB1        0.199
     60 O          36.1000  -14.8770    5.4240 O.2       1 SUB1       -0.395
     61 CB         38.1510  -13.5490    7.3840 C.3       1 SUB1       -0.010
     62 CG         38.9300  -12.4170    8.0130 C.3       1 SUB1       -0.043
     63 CD1        38.7780  -12.3690    9.5270 C.3       1 SUB1       -0.062
     64 CD2        40.3760  -12.3210    7.6040 C.3       1 SUB1       -0.062
     65 N          38.1100  -15.2360    4.5030 N.am      1 SUB1       -0.299
     66 H81        31.4644   -3.9414   -8.7806 H         1 SUB1        0.190
     67 H91        34.2037   -5.0890   -9.2038 H         1 SUB1        0.082
     68 H121       35.3037   -3.0780   -8.5294 H         1 SUB1        0.049
     69 H122       33.7795   -2.3457   -7.9235 H         1 SUB1        0.049
     70 H141       32.1493   -1.2217   -9.8290 H         1 SUB1        0.239
     71 H151       35.8052   -2.9603  -11.1901 H         1 SUB1        0.032
     72 H161       32.4796   -0.4341  -12.3279 H         1 SUB1        0.115
     73 H191       31.7301   -5.7620   -5.2496 H         1 SUB1        0.080
     74 H221       30.8319   -7.7297   -6.1104 H         1 SUB1        0.031
     75 H222       32.1667   -8.5067   -5.1933 H         1 SUB1        0.031
     76 H231       33.5059   -8.7604   -7.1056 H         1 SUB1        0.029
     77 H232       31.8737   -8.9234   -7.8377 H         1 SUB1        0.029
     78 H241       33.6776   -7.0188   -8.6836 H         1 SUB1        0.052
     79 H242       31.9050   -6.7291   -8.7047 H         1 SUB1        0.052
     80 H251       32.3205   -6.6527   -3.2128 H         1 SUB1        0.189
     81 H261       35.3104   -6.9486   -2.6977 H         1 SUB1        0.082
     82 H291       34.5353   -5.6849   -0.4613 H         1 SUB1        0.047
     83 H292       33.0561   -5.2463   -1.3812 H         1 SUB1        0.047
     84 H311       33.2023   -3.7289   -3.3175 H         1 SUB1        0.056
     85 H321       36.7121   -4.8058   -1.0989 H         1 SUB1        0.056
     86 H331       34.4539   -1.8915   -4.4146 H         1 SUB1        0.060
     87 H341       37.9687   -2.9593   -2.1998 H         1 SUB1        0.060
     88 H351       36.8295   -1.5162   -3.8452 H         1 SUB1        0.056
     89 H361       35.5602   -8.7651   -1.4681 H         1 SUB1        0.189
     90 H371       33.4639   -9.6223    0.5016 H         1 SUB1        0.082
     91 H401       35.2419  -11.2707   -1.3138 H         1 SUB1        0.049
     92 H402       33.4473  -11.2165   -1.2618 H         1 SUB1        0.049
     93 H421       33.4921  -11.5948    2.1147 H         1 SUB1        0.239
     94 H431       35.2572  -13.9390   -0.9994 H         1 SUB1        0.032
     95 H441       33.8356  -14.0376    3.0830 H         1 SUB1        0.115
     96 H571       36.2209  -11.9946    6.6597 H         1 SUB1        0.188
     97 H581       38.7269  -12.9535    5.4015 H         1 SUB1        0.080
     98 H611       38.7515  -14.4685    7.4455 H         1 SUB1        0.032
     99 H612       37.2130  -13.6858    7.9420 H         1 SUB1        0.032
    100 H621       38.4582  -11.4987    7.6334 H         1 SUB1        0.030
    101 H631       37.7188  -12.2218    9.7846 H         1 SUB1        0.023
    102 H632       39.3724  -11.5353    9.9290 H         1 SUB1        0.023
    103 H633       39.1330  -13.3152    9.9614 H         1 SUB1        0.023
    104 H641       40.9001  -13.2447    7.8904 H         1 SUB1        0.023
    105 H642       40.8436  -11.4626    8.1085 H         1 SUB1        0.023
    106 H643       40.4407  -12.1855    6.5143 H         1 SUB1        0.023
    107 H651       39.0970  -15.1115    4.6045 H         1 SUB1        0.182
    108 H51        30.7118   -4.6139  -14.2420 H         1 SUB1        0.026
    109 H52        31.9411   -3.9853  -13.0930 H         1 SUB1        0.026
    110 H53        30.2780   -3.3066  -13.0890 H         1 SUB1        0.026
    111 H61        28.7590   -5.9666  -13.3783 H         1 SUB1        0.026
    112 H62        28.3655   -4.6433  -12.2292 H         1 SUB1        0.026
    113 H63        28.6230   -6.3138  -11.6212 H         1 SUB1        0.026
    114 H71        31.0621   -6.9479  -13.4212 H         1 SUB1        0.026
    115 H72        30.9109   -7.3239  -11.6712 H         1 SUB1        0.026
    116 H73        32.3121   -6.3710  -12.2674 H         1 SUB1        0.026
    117 H461       34.3506   -8.6190    2.2148 H         1 SUB1        0.186
    118 H471       37.1066   -9.4050    2.9687 H         1 SUB1        0.058
    119 H481       37.6058   -7.3525    3.9005 H         1 SUB1        0.029
    120 H482       35.9429   -6.7385    3.6097 H         1 SUB1        0.029
    121 H491       36.4377   -6.9617    1.1595 H         1 SUB1        0.030
    122 H501       37.7048   -4.8253    1.0928 H         1 SUB1        0.023
    123 H502       38.1223   -5.0261    2.8283 H         1 SUB1        0.023
    124 H503       36.4103   -4.7916    2.3377 H         1 SUB1        0.023
    125 H511       38.5111   -8.3921    1.2991 H         1 SUB1        0.023
    126 H512       39.3593   -7.0533    2.1447 H         1 SUB1        0.023
    127 H513       38.8176   -6.8418    0.4451 H         1 SUB1        0.023
    128 H521       36.4700   -9.0027    5.3082 H         1 SUB1        0.064
    129 H531       34.2334   -8.7727    5.7484 H         1 SUB1        0.210
    130 H541       34.8965  -10.9768    3.6116 H         1 SUB1        0.053
    131 H542       34.6859  -10.9188    5.3946 H         1 SUB1        0.053
    132 H652       37.7545  -15.8853    3.8306 H         1 SUB1        0.182
@<TRIPOS>BOND
     1    9    8 1  
     2    9   12 1  
     3   10    9 1  
     4   10   11 2  
     5   12   13 1  
     6   13   14 1  
     7   13   15 2  
     8   15   17 1  
     9   17   16 2  
    10   14   16 1  
    11   20   19 1  
    12   19   22 1  
    13   19   18 1  
    14   18   24 1  
    15   24   23 1  
    16   22   23 1  
    17   20   21 2  
    18   18   10 am 
    19   26   25 1  
    20   26   29 1  
    21   27   26 1  
    22   27   28 2  
    23   29   30 1  
    24   30   31 ar 
    25   30   32 ar 
    26   32   34 ar 
    27   34   35 ar 
    28   33   35 ar 
    29   31   33 ar 
    30   25   20 am 
    31   37   36 1  
    32   37   40 1  
    33   38   37 1  
    34   38   39 2  
    35   40   41 1  
    36   41   42 1  
    37   41   43 2  
    38   43   45 1  
    39   45   44 2  
    40   42   44 1  
    41   36   27 am 
    42   57   58 1  
    43   58   61 1  
    44   58   59 1  
    45   59   60 2  
    46   61   62 1  
    47   62   63 1  
    48   62   64 1  
    49   59   65 am 
    50    2    1 2  
    51    2    3 1  
    52    8    2 am 
    53    3    4 1  
    54    4    5 1  
    55    4    6 1  
    56    4    7 1  
    57   46   38 am 
    58   47   46 1  
    59   47   48 1  
    60   52   47 1  
    61   48   49 1  
    62   49   50 1  
    63   49   51 1  
    64   52   53 1  
    65   54   52 1  
    66   55   54 1  
    67   55   56 2  
    68   55   57 am 
    69    8   66 1  
    70    9   67 1  
    71   12   68 1  
    72   12   69 1  
    73   14   70 1  
    74   15   71 1  
    75   16   72 1  
    76   19   73 1  
    77   22   74 1  
    78   22   75 1  
    79   23   76 1  
    80   23   77 1  
    81   24   78 1  
    82   24   79 1  
    83   25   80 1  
    84   26   81 1  
    85   29   82 1  
    86   29   83 1  
    87   31   84 1  
    88   32   85 1  
    89   33   86 1  
    90   34   87 1  
    91   35   88 1  
    92   36   89 1  
    93   37   90 1  
    94   40   91 1  
    95   40   92 1  
    96   42   93 1  
    97   43   94 1  
    98   44   95 1  
    99   57   96 1  
   100   58   97 1  
   101   61   98 1  
   102   61   99 1  
   103   62  100 1  
   104   63  101 1  
   105   63  102 1  
   106   63  103 1  
   107   64  104 1  
   108   64  105 1  
   109   64  106 1  
   110   65  107 1  
   111    5  108 1  
   112    5  109 1  
   113    5  110 1  
   114    6  111 1  
   115    6  112 1  
   116    6  113 1  
   117    7  114 1  
   118    7  115 1  
   119    7  116 1  
   120   46  117 1  
   121   47  118 1  
   122   48  119 1  
   123   48  120 1  
   124   49  121 1  
   125   50  122 1  
   126   50  123 1  
   127   50  124 1  
   128   51  125 1  
   129   51  126 1  
   130   51  127 1  
   131   52  128 1  
   132   53  129 1  
   133   54  130 1  
   134   54  131 1  
   135   65  132 1  
@<TRIPOS>SUBSTRUCTURE
     1 SUB1        1 GROUP

