1o86_ligand
  -I-interpret- 

 57 58  0  0  0  0  0  0  0  0999 V2000
   40.2910   33.7430   45.1200 O   0  0  0  0  0
   43.3690   36.2010   48.2690 O   0  5  0  0  0
   41.9390   37.2830   47.0690 O   0  0  0  0  0
   38.8430   33.3680   41.8670 O   0  5  0  0  0
   40.7030   32.2720   42.3260 O   0  0  0  0  0
   41.8970   34.0630   47.2660 N   0  0  0  0  0
   41.8100   34.5330   43.5990 N   0  0  0  0  0
   43.3290   27.7740   44.0870 N   0  3  0  0  0
   41.5020   34.0520   44.8400 C   0  0  0  0  0
   42.6120   33.8520   45.9430 C   0  0  0  0  0
   42.2590   36.2670   47.6540 C   0  0  0  0  0
   41.3150   35.0650   47.6820 C   0  0  0  0  0
   40.7150   34.6850   42.5590 C   0  0  0  0  0
   41.5050   35.2370   41.3530 C   0  0  0  0  0
   42.8260   35.3690   41.6800 C   0  0  0  0  0
   43.1380   34.9560   43.0620 C   0  0  0  0  0
   40.0810   33.2840   42.2240 C   0  0  0  0  0
   43.2520   32.4730   45.7840 C   0  0  0  0  0
   42.4840   31.2480   45.5360 C   0  0  0  0  0
   43.2960   30.0620   44.8420 C   0  0  0  0  0
   42.4870   28.8950   44.6290 C   0  0  0  0  0
   40.5860   35.3650   48.9320 C   0  0  0  0  0
   39.4080   36.2990   49.1630 C   0  0  0  0  0
   38.8470   36.4010   50.5490 C   0  0  0  0  0
   38.5660   35.2060   51.3310 C   0  0  0  0  0
   38.0160   35.3190   52.6560 C   0  0  0  0  0
   37.7370   36.6270   53.2180 C   0  0  0  0  0
   38.0140   37.8220   52.4430 C   0  0  0  0  0
   38.5680   37.7100   51.1120 C   0  0  0  0  0
   42.6577   33.8591   48.0050 H   0  0  0  0  0
   42.7453   26.9647   43.9440 H   0  0  0  0  0
   43.7360   28.0450   43.2056 H   0  0  0  0  0
   44.0567   27.5417   44.7446 H   0  0  0  0  0
   43.3955   34.6178   45.8450 H   0  0  0  0  0
   40.5547   35.1984   46.8984 H   0  0  0  0  0
   39.9386   35.3854   42.9003 H   0  0  0  0  0
   41.0736   35.4848   40.3843 H   0  0  0  0  0
   43.5771   35.7436   40.9861 H   0  0  0  0  0
   43.8449   34.1134   43.0782 H   0  0  0  0  0
   43.5404   35.7945   43.6493 H   0  0  0  0  0
   43.9505   32.5532   44.9381 H   0  0  0  0  0
   43.8087   32.2827   46.7134 H   0  0  0  0  0
   42.1114   30.8715   46.5000 H   0  0  0  0  0
   41.6382   31.4965   44.8782 H   0  0  0  0  0
   43.6674   30.4041   43.8648 H   0  0  0  0  0
   44.1414   29.7795   45.4866 H   0  0  0  0  0
   42.0427   28.5736   45.5825 H   0  0  0  0  0
   41.6927   29.1228   43.9030 H   0  0  0  0  0
   41.3709   35.7330   49.6091 H   0  0  0  0  0
   40.2314   34.3799   49.2693 H   0  0  0  0  0
   39.7248   37.3124   48.8756 H   0  0  0  0  0
   38.5854   35.9649   48.5136 H   0  0  0  0  0
   38.7718   34.2270   50.9136 H   0  0  0  0  0
   37.8100   34.4259   53.2347 H   0  0  0  0  0
   37.3220   36.7115   54.2159 H   0  0  0  0  0
   37.8054   38.7997   52.8622 H   0  0  0  0  0
   38.7751   38.6036   50.5344 H   0  0  0  0  0
  9  1  2  0  0  0
  9 10  1  0  0  0
 10 18  1  0  0  0
 12 11  1  0  0  0
 13 14  1  0  0  0
 13 17  1  0  0  0
 14 15  2  0  0  0
 16 15  1  0  0  0
 18 19  1  0  0  0
 19 20  1  0  0  0
 20 21  1  0  0  0
 22 23  1  0  0  0
 23 24  1  0  0  0
 24 25  4  0  0  0
 24 29  4  0  0  0
 25 26  4  0  0  0
 26 27  4  0  0  0
 28 27  4  0  0  0
 29 28  4  0  0  0
 12 22  1  0  0  0
 21  8  1  0  0  0
 17  5  2  0  0  0
 17  4  1  0  0  0
  7 16  1  0  0  0
  7 13  1  0  0  0
  6 12  1  0  0  0
 11  3  2  0  0  0
 11  2  1  0  0  0
 10  6  1  0  0  0
  9  7  1  0  0  0
  6 30  1  0  0  0
  8 31  1  0  0  0
  8 32  1  0  0  0
  8 33  1  0  0  0
 10 34  1  0  0  0
 12 35  1  0  0  0
 13 36  1  0  0  0
 14 37  1  0  0  0
 15 38  1  0  0  0
 16 39  1  0  0  0
 16 40  1  0  0  0
 18 41  1  0  0  0
 18 42  1  0  0  0
 19 43  1  0  0  0
 19 44  1  0  0  0
 20 45  1  0  0  0
 20 46  1  0  0  0
 21 47  1  0  0  0
 21 48  1  0  0  0
 22 49  1  0  0  0
 22 50  1  0  0  0
 23 51  1  0  0  0
 23 52  1  0  0  0
 25 53  1  0  0  0
 26 54  1  0  0  0
 27 55  1  0  0  0
 28 56  1  0  0  0
 29 57  1  0  0  0
M  END
$$$$
