### 
### Created by X-TOOL on Tue Oct 25 00:08:54 2005
### 

@<TRIPOS>MOLECULE
1o86_ligand
   57    58     1     0     0
SMALL
GAST_HUCK


@<TRIPOS>ATOM
      1 O1         40.2910   33.7430   45.1200 O.2       1 SUB1       -0.394
      2 O2         43.3690   36.2010   48.2690 O.co2     1 SUB1       -0.565
      3 O3         41.9390   37.2830   47.0690 O.co2     1 SUB1       -0.565
      4 O4         38.8430   33.3680   41.8670 O.co2     1 SUB1       -0.566
      5 O5         40.7030   32.2720   42.3260 O.co2     1 SUB1       -0.566
      6 N1         41.8970   34.0630   47.2660 N.3       1 SUB1       -0.279
      7 N2         41.8100   34.5330   43.5990 N.am      1 SUB1       -0.238
      8 N3         43.3290   27.7740   44.0870 N.4       1 SUB1        0.219
      9 C1         41.5020   34.0520   44.8400 C.2       1 SUB1        0.203
     10 C2         42.6120   33.8520   45.9430 C.3       1 SUB1        0.102
     11 C3         42.2590   36.2670   47.6540 C.2       1 SUB1        0.045
     12 C4         41.3150   35.0650   47.6820 C.3       1 SUB1        0.051
     13 C5         40.7150   34.6850   42.5590 C.3       1 SUB1        0.102
     14 C6         41.5050   35.2370   41.3530 C.2       1 SUB1       -0.056
     15 C7         42.8260   35.3690   41.6800 C.2       1 SUB1       -0.068
     16 C8         43.1380   34.9560   43.0620 C.3       1 SUB1        0.059
     17 C9         40.0810   33.2840   42.2240 C.2       1 SUB1        0.057
     18 C10        43.2520   32.4730   45.7840 C.3       1 SUB1       -0.020
     19 C11        42.4840   31.2480   45.5360 C.3       1 SUB1       -0.045
     20 C12        43.2960   30.0620   44.8420 C.3       1 SUB1       -0.013
     21 C13        42.4870   28.8950   44.6290 C.3       1 SUB1       -0.035
     22 C14        40.5860   35.3650   48.9320 C.3       1 SUB1       -0.016
     23 C15        39.4080   36.2990   49.1630 C.3       1 SUB1       -0.015
     24 C16        38.8470   36.4010   50.5490 C.ar      1 SUB1       -0.043
     25 C17        38.5660   35.2060   51.3310 C.ar      1 SUB1       -0.060
     26 C18        38.0160   35.3190   52.6560 C.ar      1 SUB1       -0.069
     27 C19        37.7370   36.6270   53.2180 C.ar      1 SUB1       -0.069
     28 C20        38.0140   37.8220   52.4430 C.ar      1 SUB1       -0.069
     29 C21        38.5680   37.7100   51.1120 C.ar      1 SUB1       -0.060
     30 H61        42.6577   33.8591   48.0050 H         1 SUB1        0.129
     31 H81        42.7453   26.9647   43.9440 H         1 SUB1        0.199
     32 H82        43.7360   28.0450   43.2056 H         1 SUB1        0.199
     33 H83        44.0567   27.5417   44.7446 H         1 SUB1        0.199
     34 H101       43.3955   34.6178   45.8450 H         1 SUB1        0.071
     35 H121       40.5547   35.1984   46.8984 H         1 SUB1        0.068
     36 H131       39.9386   35.3854   42.9003 H         1 SUB1        0.092
     37 H141       41.0736   35.4848   40.3843 H         1 SUB1        0.051
     38 H151       43.5771   35.7436   40.9861 H         1 SUB1        0.051
     39 H161       43.8449   34.1134   43.0782 H         1 SUB1        0.066
     40 H162       43.5404   35.7945   43.6493 H         1 SUB1        0.066
     41 H181       43.9505   32.5532   44.9381 H         1 SUB1        0.031
     42 H182       43.8087   32.2827   46.7134 H         1 SUB1        0.031
     43 H191       42.1114   30.8715   46.5000 H         1 SUB1        0.027
     44 H192       41.6382   31.4965   44.8782 H         1 SUB1        0.027
     45 H201       43.6674   30.4041   43.8648 H         1 SUB1        0.032
     46 H202       44.1414   29.7795   45.4866 H         1 SUB1        0.032
     47 H211       42.0427   28.5736   45.5825 H         1 SUB1        0.081
     48 H212       41.6927   29.1228   43.9030 H         1 SUB1        0.081
     49 H221       41.3709   35.7330   49.6091 H         1 SUB1        0.034
     50 H222       40.2314   34.3799   49.2693 H         1 SUB1        0.034
     51 H231       39.7248   37.3124   48.8756 H         1 SUB1        0.043
     52 H232       38.5854   35.9649   48.5136 H         1 SUB1        0.043
     53 H251       38.7718   34.2270   50.9136 H         1 SUB1        0.056
     54 H261       37.8100   34.4259   53.2347 H         1 SUB1        0.060
     55 H271       37.3220   36.7115   54.2159 H         1 SUB1        0.056
     56 H281       37.8054   38.7997   52.8622 H         1 SUB1        0.060
     57 H291       38.7751   38.6036   50.5344 H         1 SUB1        0.056
@<TRIPOS>BOND
     1    9    1 2  
     2    9   10 1  
     3   10   18 1  
     4   12   11 1  
     5   13   14 1  
     6   13   17 1  
     7   14   15 2  
     8   16   15 1  
     9   18   19 1  
    10   19   20 1  
    11   20   21 1  
    12   22   23 1  
    13   23   24 1  
    14   24   25 ar 
    15   24   29 ar 
    16   25   26 ar 
    17   26   27 ar 
    18   28   27 ar 
    19   29   28 ar 
    20   12   22 1  
    21   21    8 1  
    22   17    5 2  
    23   17    4 2  
    24    7   16 1  
    25    7   13 1  
    26    6   12 1  
    27   11    3 2  
    28   11    2 2  
    29   10    6 1  
    30    9    7 am 
    31    6   30 1  
    32    8   31 1  
    33    8   32 1  
    34    8   33 1  
    35   10   34 1  
    36   12   35 1  
    37   13   36 1  
    38   14   37 1  
    39   15   38 1  
    40   16   39 1  
    41   16   40 1  
    42   18   41 1  
    43   18   42 1  
    44   19   43 1  
    45   19   44 1  
    46   20   45 1  
    47   20   46 1  
    48   21   47 1  
    49   21   48 1  
    50   22   49 1  
    51   22   50 1  
    52   23   51 1  
    53   23   52 1  
    54   25   53 1  
    55   26   54 1  
    56   27   55 1  
    57   28   56 1  
    58   29   57 1  
@<TRIPOS>SUBSTRUCTURE
     1 SUB1        1 GROUP

