### 
### Created by X-TOOL on Tue Oct 25 02:38:33 2005
### 

@<TRIPOS>MOLECULE
1jwt_ligand
   67    70     1     0     0
SMALL
GAST_HUCK


@<TRIPOS>ATOM
      1 N1         17.7350  -13.9960   22.2350 N.am      1 SUB1       -0.246
      2 C1         18.8210  -14.6480   21.5290 C.3       1 SUB1        0.065
      3 C2         19.7850  -15.3630   22.4630 C.3       1 SUB1        0.055
      4 N3         19.0680  -16.2000   23.4190 N.am      1 SUB1       -0.216
      5 C4         17.6270  -15.9660   23.5790 C.3       1 SUB1        0.119
      6 C5         17.1710  -14.5240   23.3250 C.2       1 SUB1        0.200
      7 O11        16.3340  -13.9400   24.0230 O.2       1 SUB1       -0.395
      8 C01        17.1860  -12.8340   21.5380 C.3       1 SUB1        0.134
      9 C09        15.6420  -12.9580   21.2390 C.2       1 SUB1        0.202
     10 O09        15.0830  -14.0220   21.4130 O.2       1 SUB1       -0.394
     11 N10        14.9840  -11.8570   20.8010 N.am      1 SUB1       -0.285
     12 C03        18.0920  -12.7750   20.2820 C.3       1 SUB1       -0.010
     13 C06        19.3810  -13.5080   20.6810 C.3       1 SUB1       -0.024
     14 S1         19.6420  -17.7900   23.8030 S.o2      1 SUB1        0.053
     15 O2         19.9080  -18.4020   22.5110 O.2       1 SUB1       -0.153
     16 C02        21.2350  -17.5760   24.6220 C.3       1 SUB1        0.118
     17 O1         18.6420  -18.3240   24.6480 O.2       1 SUB1       -0.153
     18 C1'        13.5690  -11.9310   20.4640 C.3       1 SUB1        0.034
     19 C2'        12.8440  -11.9540   21.7800 C.3       1 SUB1       -0.018
     20 C3'        11.9430  -10.7470   21.9030 C.3       1 SUB1       -0.029
     21 C7'        11.3780  -10.7110   23.3130 C.3       1 SUB1        0.054
     22 C4'        12.0540  -13.2410   21.9710 C.3       1 SUB1       -0.029
     23 C5'        11.4820  -13.2180   23.3890 C.3       1 SUB1        0.054
     24 N1'        10.7820  -11.9750   23.7580 N.pl3     1 SUB1       -0.156
     25 C6'        10.4520  -11.8810   25.1140 C.cat     1 SUB1        0.417
     26 N2'         9.8710  -12.8690   25.6700 N.pl3     1 SUB1       -0.181
     27 N3'        10.6950  -10.8010   25.8880 N.pl3     1 SUB1       -0.044
     28 O3'        10.3130   -9.4370   25.6980 O.3       1 SUB1       -0.261
     29 C6'        21.2170  -16.4670   25.6310 C.ar      1 SUB1       -0.020
     30 C1'        22.1830  -15.4710   25.6220 C.ar      1 SUB1       -0.059
     31 C2'        21.9100  -14.2860   26.2620 C.ar      1 SUB1       -0.068
     32 C3'        20.7220  -14.1480   26.9540 C.ar      1 SUB1       -0.069
     33 C4'        19.8590  -15.2210   27.1250 C.ar      1 SUB1       -0.068
     34 C5'        20.1350  -16.4010   26.4960 C.ar      1 SUB1       -0.059
     35 H21        18.4119  -15.4156   20.8556 H         1 SUB1        0.058
     36 H31        20.3743  -14.6143   23.0126 H         1 SUB1        0.050
     37 H32        20.4596  -15.9955   21.8673 H         1 SUB1        0.050
     38 H51        17.3502  -16.2346   24.6092 H         1 SUB1        0.072
     39 H52        17.0948  -16.6211   22.8736 H         1 SUB1        0.072
     40 H81        17.3321  -11.9274   22.1435 H         1 SUB1        0.080
     41 H111       15.4726  -10.9894   20.7087 H         1 SUB1        0.185
     42 H121       17.6079  -13.2801   19.4331 H         1 SUB1        0.031
     43 H122       18.3096  -11.7311   20.0120 H         1 SUB1        0.031
     44 H131       19.9187  -13.8873   19.7996 H         1 SUB1        0.029
     45 H132       20.0489  -12.8596   21.2671 H         1 SUB1        0.029
     46 H161       21.9954  -17.3479   23.8606 H         1 SUB1        0.068
     47 H162       21.4977  -18.5139   25.1332 H         1 SUB1        0.068
     48 H181       13.3572  -12.8466   19.8923 H         1 SUB1        0.052
     49 H182       13.2677  -11.0526   19.8744 H         1 SUB1        0.052
     50 H191       13.5966  -11.9007   22.5805 H         1 SUB1        0.032
     51 H201       11.1213  -10.8213   21.1755 H         1 SUB1        0.029
     52 H202       12.5210   -9.8310   21.7111 H         1 SUB1        0.029
     53 H211       10.6027   -9.9318   23.3534 H         1 SUB1        0.050
     54 H212       12.1937  -10.4529   24.0043 H         1 SUB1        0.050
     55 H221       12.7157  -14.1108   21.8463 H         1 SUB1        0.029
     56 H222       11.2369  -13.2935   21.2365 H         1 SUB1        0.029
     57 H231       10.7703  -14.0514   23.4834 H         1 SUB1        0.050
     58 H232       12.3132  -13.3639   24.0946 H         1 SUB1        0.050
     59 H261        9.6182  -12.8231   26.6674 H         1 SUB1        0.194
     60 H262        9.6540  -13.7138   25.1221 H         1 SUB1        0.194
     61 H271       11.2370  -10.9887   26.7436 H         1 SUB1        0.234
     62 H281       10.6371   -8.9147   26.4224 H         1 SUB1        0.245
     63 H301       23.1321  -15.6243   25.1212 H         1 SUB1        0.056
     64 H311       22.6197  -13.4675   26.2243 H         1 SUB1        0.060
     65 H321       20.4591  -13.1827   27.3714 H         1 SUB1        0.056
     66 H331       18.9781  -15.1238   27.7492 H         1 SUB1        0.060
     67 H341       19.5169  -17.2743   26.6703 H         1 SUB1        0.056
@<TRIPOS>BOND
     1    1    8 1  
     2    1    6 am 
     3    1    2 1  
     4    2   13 1  
     5    2    3 1  
     6    3    4 1  
     7    4   14 1  
     8    4    5 1  
     9    5    6 1  
    10    6    7 2  
    11   14   17 2  
    12   14   16 1  
    13   14   15 2  
    14   16   29 1  
    15   29   34 ar 
    16   29   30 ar 
    17   30   31 ar 
    18   31   32 ar 
    19   32   33 ar 
    20   33   34 ar 
    21   13   12 1  
    22   12    8 1  
    23    8    9 1  
    24    9   11 am 
    25    9   10 2  
    26   11   18 1  
    27   18   19 1  
    28   19   22 1  
    29   19   20 1  
    30   20   21 1  
    31   21   24 1  
    32   24   25 1  
    33   24   23 1  
    34   23   22 1  
    35   25   27 1  
    36   25   26 1  
    37   27   28 1  
    38    2   35 1  
    39    3   36 1  
    40    3   37 1  
    41    5   38 1  
    42    5   39 1  
    43    8   40 1  
    44   11   41 1  
    45   12   42 1  
    46   12   43 1  
    47   13   44 1  
    48   13   45 1  
    49   16   46 1  
    50   16   47 1  
    51   18   48 1  
    52   18   49 1  
    53   19   50 1  
    54   20   51 1  
    55   20   52 1  
    56   21   53 1  
    57   21   54 1  
    58   22   55 1  
    59   22   56 1  
    60   23   57 1  
    61   23   58 1  
    62   26   59 1  
    63   26   60 1  
    64   27   61 1  
    65   28   62 1  
    66   30   63 1  
    67   31   64 1  
    68   32   65 1  
    69   33   66 1  
    70   34   67 1  
@<TRIPOS>SUBSTRUCTURE
     1 SUB1        1 GROUP

