1jwt_ligand
  -I-interpret- 

 67 70  0  0  0  0  0  0  0  0999 V2000
   17.7350  -13.9960   22.2350 N   0  0  0  0  0
   18.8210  -14.6480   21.5290 C   0  0  0  0  0
   19.7850  -15.3630   22.4630 C   0  0  0  0  0
   19.0680  -16.2000   23.4190 N   0  0  0  0  0
   17.6270  -15.9660   23.5790 C   0  0  0  0  0
   17.1710  -14.5240   23.3250 C   0  0  0  0  0
   16.3340  -13.9400   24.0230 O   0  0  0  0  0
   17.1860  -12.8340   21.5380 C   0  0  0  0  0
   15.6420  -12.9580   21.2390 C   0  0  0  0  0
   15.0830  -14.0220   21.4130 O   0  0  0  0  0
   14.9840  -11.8570   20.8010 N   0  0  0  0  0
   18.0920  -12.7750   20.2820 C   0  0  0  0  0
   19.3810  -13.5080   20.6810 C   0  0  0  0  0
   19.6420  -17.7900   23.8030 S   0  0  0  0  0
   19.9080  -18.4020   22.5110 O   0  0  0  0  0
   21.2350  -17.5760   24.6220 C   0  0  0  0  0
   18.6420  -18.3240   24.6480 O   0  0  0  0  0
   13.5690  -11.9310   20.4640 C   0  0  0  0  0
   12.8440  -11.9540   21.7800 C   0  0  0  0  0
   11.9430  -10.7470   21.9030 C   0  0  0  0  0
   11.3780  -10.7110   23.3130 C   0  0  0  0  0
   12.0540  -13.2410   21.9710 C   0  0  0  0  0
   11.4820  -13.2180   23.3890 C   0  0  0  0  0
   10.7820  -11.9750   23.7580 N   0  0  0  0  0
   10.4520  -11.8810   25.1140 C   0  3  0  0  0
    9.8710  -12.8690   25.6700 N   0  0  0  0  0
   10.6950  -10.8010   25.8880 N   0  0  0  0  0
   10.3130   -9.4370   25.6980 O   0  0  0  0  0
   21.2170  -16.4670   25.6310 C   0  0  0  0  0
   22.1830  -15.4710   25.6220 C   0  0  0  0  0
   21.9100  -14.2860   26.2620 C   0  0  0  0  0
   20.7220  -14.1480   26.9540 C   0  0  0  0  0
   19.8590  -15.2210   27.1250 C   0  0  0  0  0
   20.1350  -16.4010   26.4960 C   0  0  0  0  0
   18.4119  -15.4156   20.8556 H   0  0  0  0  0
   20.3743  -14.6143   23.0126 H   0  0  0  0  0
   20.4596  -15.9955   21.8673 H   0  0  0  0  0
   17.3502  -16.2346   24.6092 H   0  0  0  0  0
   17.0948  -16.6211   22.8736 H   0  0  0  0  0
   17.3321  -11.9274   22.1435 H   0  0  0  0  0
   15.4726  -10.9894   20.7087 H   0  0  0  0  0
   17.6079  -13.2801   19.4331 H   0  0  0  0  0
   18.3096  -11.7311   20.0120 H   0  0  0  0  0
   19.9187  -13.8873   19.7996 H   0  0  0  0  0
   20.0489  -12.8596   21.2671 H   0  0  0  0  0
   21.9954  -17.3479   23.8606 H   0  0  0  0  0
   21.4977  -18.5139   25.1332 H   0  0  0  0  0
   13.3572  -12.8466   19.8923 H   0  0  0  0  0
   13.2677  -11.0526   19.8744 H   0  0  0  0  0
   13.5966  -11.9007   22.5805 H   0  0  0  0  0
   11.1213  -10.8213   21.1755 H   0  0  0  0  0
   12.5210   -9.8310   21.7111 H   0  0  0  0  0
   10.6027   -9.9318   23.3534 H   0  0  0  0  0
   12.1937  -10.4529   24.0043 H   0  0  0  0  0
   12.7157  -14.1108   21.8463 H   0  0  0  0  0
   11.2369  -13.2935   21.2365 H   0  0  0  0  0
   10.7703  -14.0514   23.4834 H   0  0  0  0  0
   12.3132  -13.3639   24.0946 H   0  0  0  0  0
    9.6182  -12.8231   26.6674 H   0  0  0  0  0
    9.6540  -13.7138   25.1221 H   0  0  0  0  0
   11.2370  -10.9887   26.7436 H   0  0  0  0  0
   10.6371   -8.9147   26.4224 H   0  0  0  0  0
   23.1321  -15.6243   25.1212 H   0  0  0  0  0
   22.6197  -13.4675   26.2243 H   0  0  0  0  0
   20.4591  -13.1827   27.3714 H   0  0  0  0  0
   18.9781  -15.1238   27.7492 H   0  0  0  0  0
   19.5169  -17.2743   26.6703 H   0  0  0  0  0
  1  8  1  0  0  0
  1  6  1  0  0  0
  1  2  1  0  0  0
  2 13  1  0  0  0
  2  3  1  0  0  0
  3  4  1  0  0  0
  4 14  1  0  0  0
  4  5  1  0  0  0
  5  6  1  0  0  0
  6  7  2  0  0  0
 14 17  2  0  0  0
 14 16  1  0  0  0
 14 15  2  0  0  0
 16 29  1  0  0  0
 29 34  4  0  0  0
 29 30  4  0  0  0
 30 31  4  0  0  0
 31 32  4  0  0  0
 32 33  4  0  0  0
 33 34  4  0  0  0
 13 12  1  0  0  0
 12  8  1  0  0  0
  8  9  1  0  0  0
  9 11  1  0  0  0
  9 10  2  0  0  0
 11 18  1  0  0  0
 18 19  1  0  0  0
 19 22  1  0  0  0
 19 20  1  0  0  0
 20 21  1  0  0  0
 21 24  1  0  0  0
 24 25  1  0  0  0
 24 23  1  0  0  0
 23 22  1  0  0  0
 25 27  1  0  0  0
 25 26  1  0  0  0
 27 28  1  0  0  0
  2 35  1  0  0  0
  3 36  1  0  0  0
  3 37  1  0  0  0
  5 38  1  0  0  0
  5 39  1  0  0  0
  8 40  1  0  0  0
 11 41  1  0  0  0
 12 42  1  0  0  0
 12 43  1  0  0  0
 13 44  1  0  0  0
 13 45  1  0  0  0
 16 46  1  0  0  0
 16 47  1  0  0  0
 18 48  1  0  0  0
 18 49  1  0  0  0
 19 50  1  0  0  0
 20 51  1  0  0  0
 20 52  1  0  0  0
 21 53  1  0  0  0
 21 54  1  0  0  0
 22 55  1  0  0  0
 22 56  1  0  0  0
 23 57  1  0  0  0
 23 58  1  0  0  0
 26 59  1  0  0  0
 26 60  1  0  0  0
 27 61  1  0  0  0
 28 62  1  0  0  0
 30 63  1  0  0  0
 31 64  1  0  0  0
 32 65  1  0  0  0
 33 66  1  0  0  0
 34 67  1  0  0  0
M  END
$$$$
