### 
### Created by X-TOOL on Sun Jun  3 11:58:27 2007
### 

@<TRIPOS>MOLECULE
2c97_ligand
   28    28     1     0     0
SMALL
GAST_HUCK


@<TRIPOS>ATOM
      1 N3        -24.0530   -0.7470    6.6790 N.am      1 SUB1       -0.186
      2 N1        -23.5450   -2.5420    5.2400 N.am      1 SUB1       -0.204
      3 C6        -22.8090   -1.7380    4.4860 C.2       1 SUB1        0.150
      4 CL        -22.0600   -2.4610    3.0870 Cl        1 SUB1       -0.030
      5 C5        -22.6120   -0.3030    4.7730 C.2       1 SUB1        0.041
      6 C7        -21.8080    0.6350    3.8890 C.3       1 SUB1       -0.030
      7 C2        -24.1540   -2.0540    6.3170 C.2       1 SUB1        0.321
      8 C4        -23.3310    0.1700    5.9800 C.2       1 SUB1        0.194
      9 O1        -24.8160   -2.8710    6.9850 O.2       1 SUB1       -0.385
     10 O2        -23.2490    1.3840    6.3310 O.2       1 SUB1       -0.407
     11 C8        -20.3480    0.2740    3.5930 C.3       1 SUB1       -0.047
     12 C9        -19.6430    1.5650    3.1770 C.3       1 SUB1       -0.024
     13 C10       -19.3620    1.6740    1.7060 C.3       1 SUB1        0.066
     14 O27       -19.7170    2.8580    0.9330 O.3       1 SUB1       -0.322
     15 P         -18.7350    4.1070    0.5960 P.3       1 SUB1        0.205
     16 O1P       -19.6540    5.2710    0.9050 O.co2     1 SUB1       -0.535
     17 O2P       -17.5600    3.9090    1.5270 O.co2     1 SUB1       -0.535
     18 O3P       -18.3970    4.0610   -0.8760 O.co2     1 SUB1       -0.535
     19 H         -24.5344   -0.4443    7.5016 H         1 SUB1        0.226
     20 H         -23.6417   -3.5082    5.0009 H         1 SUB1        0.236
     21 H         -21.8083    1.6220    4.3747 H         1 SUB1        0.034
     22 H         -22.3302    0.7014    2.9232 H         1 SUB1        0.034
     23 H         -20.2990   -0.4626    2.7775 H         1 SUB1        0.028
     24 H         -19.8722   -0.1429    4.4929 H         1 SUB1        0.028
     25 H         -18.6853    1.6224    3.7150 H         1 SUB1        0.029
     26 H         -20.2791    2.4135    3.4692 H         1 SUB1        0.029
     27 H         -19.8826    0.8297    1.2306 H         1 SUB1        0.061
     28 H         -18.2755    1.5466    1.5908 H         1 SUB1        0.061
@<TRIPOS>BOND
     1    7    1 am 
     2    1    8 am 
     3    2    3 am 
     4    2    7 am 
     5    3    4 1  
     6    3    5 2  
     7    5    6 1  
     8    5    8 1  
     9    6   11 1  
    10    7    9 2  
    11    8   10 2  
    12   11   12 1  
    13   12   13 1  
    14   13   14 1  
    15   14   15 1  
    16   15   16 2  
    17   15   17 2  
    18   15   18 2  
    19    1   19 1  
    20    2   20 1  
    21    6   21 1  
    22    6   22 1  
    23   11   23 1  
    24   11   24 1  
    25   12   25 1  
    26   12   26 1  
    27   13   27 1  
    28   13   28 1  
@<TRIPOS>SUBSTRUCTURE
     1 SUB1        1 GROUP

