### 
### Created by X-TOOL on Tue Oct 25 01:53:11 2005
### 

@<TRIPOS>MOLECULE
1stc_ligand
   62    69     1     0     0
SMALL
GAST_HUCK


@<TRIPOS>ATOM
      1 H221       11.0573   20.8892   30.8572 H         1 SUB1        0.056
      2 H231        9.7262   18.8378   30.5182 H         1 SUB1        0.052
      3 H241        7.2898   18.9622   30.1390 H         1 SUB1        0.056
      4 H251        6.1153   21.1393   30.1261 H         1 SUB1        0.054
      5 H321        7.2645   29.5692   29.7197 H         1 SUB1        0.054
      6 H331        8.9583   31.3964   29.4758 H         1 SUB1        0.056
      7 H341       11.3635   30.9332   29.7744 H         1 SUB1        0.052
      8 H351       12.1546   28.6537   30.2932 H         1 SUB1        0.057
      9 H401       14.3479   24.3631   31.3133 H         1 SUB1        0.186
     10 H411       12.3862   22.8732   32.0584 H         1 SUB1        0.068
     11 H412       12.7224   22.6357   30.3099 H         1 SUB1        0.068
     12 H461        5.2751   23.4755   28.1652 H         1 SUB1        0.071
     13 H471        4.4187   25.7464   28.5214 H         1 SUB1        0.088
     14 H481        7.1432   26.8430   27.8789 H         1 SUB1        0.037
     15 H482        5.6473   27.7349   28.3187 H         1 SUB1        0.037
     16 H491        6.1210   27.5827   30.4416 H         1 SUB1        0.094
     17 H521        5.5613   24.8793   26.1300 H         1 SUB1        0.201
     18 H522        5.2528   26.4956   26.1720 H         1 SUB1        0.201
     19 H531        3.4084   25.3288   25.2695 H         1 SUB1        0.078
     20 H532        3.0070   26.1263   26.8281 H         1 SUB1        0.078
     21 H533        3.3437   24.3625   26.7823 H         1 SUB1        0.078
     22 C1          9.9880   20.9530   30.6910 C.ar      1 SUB1       -0.070
     23 C2          9.2370   19.8050   30.5020 C.ar      1 SUB1       -0.076
     24 C3          7.8530   19.8760   30.2900 C.ar      1 SUB1       -0.074
     25 C4          7.1890   21.1000   30.2700 C.ar      1 SUB1       -0.041
     26 C5          7.9380   22.3000   30.4410 C.ar      1 SUB1        0.070
     27 N6          7.5830   23.6680   30.3550 N.pl3     1 SUB1       -0.229
     28 C7          8.7390   24.4230   30.5150 C.ar      1 SUB1        0.098
     29 C8          8.9580   25.8320   30.4240 C.ar      1 SUB1        0.096
     30 N9          8.0480   26.8590   30.2210 N.pl3     1 SUB1       -0.237
     31 C10         8.7700   28.0600   30.1430 C.ar      1 SUB1        0.068
     32 C11         8.3210   29.3610   29.8440 C.ar      1 SUB1       -0.041
     33 C12         9.2830   30.3890   29.7100 C.ar      1 SUB1       -0.073
     34 C13        10.6470   30.1260   29.8750 C.ar      1 SUB1       -0.075
     35 C14        11.0950   28.8440   30.1660 C.ar      1 SUB1       -0.069
     36 C15        10.1550   27.7780   30.2970 C.ar      1 SUB1       -0.007
     37 C16        10.2790   26.3560   30.4880 C.ar      1 SUB1       -0.002
     38 C17        11.3820   25.4440   30.6180 C.ar      1 SUB1        0.032
     39 C18        12.8320   25.6660   30.8380 C.2       1 SUB1        0.187
     40 N19        13.3760   24.4780   31.1080 N.am      1 SUB1       -0.279
     41 C20        12.4490   23.3720   31.0800 C.3       1 SUB1        0.060
     42 C21        11.1610   24.0810   30.7360 C.ar      1 SUB1       -0.017
     43 C22         9.8490   23.5510   30.6820 C.ar      1 SUB1        0.002
     44 C23         9.3380   22.2140   30.6640 C.ar      1 SUB1       -0.007
     45 C24         6.2610   24.2550   29.9760 C.3       1 SUB1        0.202
     46 C25         5.9480   24.2960   28.4550 C.3       1 SUB1        0.156
     47 C26         5.3780   25.6340   27.9950 C.3       1 SUB1        0.014
     48 C27         6.2200   26.8090   28.4760 C.3       1 SUB1        0.046
     49 C28         6.6030   26.7220   29.9550 C.3       1 SUB1        0.167
     50 O29         6.0710   25.5490   30.5820 O.3       1 SUB1       -0.315
     51 O30        13.4450   26.7050   30.8610 O.2       1 SUB1       -0.397
     52 N31         5.0230   25.6030   26.5800 N.4       1 SUB1        0.229
     53 C32         3.6090   25.3390   26.3510 C.3       1 SUB1       -0.045
     54 O33         7.2630   24.1670   27.8660 O.3       1 SUB1       -0.369
     55 C34         7.4290   23.4860   26.6220 C.3       1 SUB1        0.037
     56 C35         5.0950   23.5360   30.6640 C.3       1 SUB1       -0.006
     57 H551        8.4922   23.4919   26.3398 H         1 SUB1        0.052
     58 H552        6.8404   23.9945   25.8442 H         1 SUB1        0.052
     59 H553        7.0825   22.4470   26.7236 H         1 SUB1        0.052
     60 H561        4.1459   23.9997   30.3570 H         1 SUB1        0.029
     61 H562        5.2067   23.6174   31.7553 H         1 SUB1        0.029
     62 H563        5.0956   22.4751   30.3734 H         1 SUB1        0.029
@<TRIPOS>BOND
     1   22    1 1  
     2   23    2 1  
     3   24    3 1  
     4   25    4 1  
     5   32    5 1  
     6   33    6 1  
     7   34    7 1  
     8   35    8 1  
     9   40    9 1  
    10   41   10 1  
    11   41   11 1  
    12   46   12 1  
    13   47   13 1  
    14   48   14 1  
    15   48   15 1  
    16   49   16 1  
    17   52   17 1  
    18   52   18 1  
    19   53   19 1  
    20   44   22 ar 
    21   22   23 ar 
    22   24   23 ar 
    23   25   24 ar 
    24   26   25 ar 
    25   26   44 ar 
    26   27   26 1  
    27   45   27 1  
    28   27   28 1  
    29   28   43 ar 
    30   28   29 ar 
    31   29   37 ar 
    32   30   29 1  
    33   49   30 1  
    34   30   31 1  
    35   31   36 ar 
    36   31   32 ar 
    37   32   33 ar 
    38   33   34 ar 
    39   35   34 ar 
    40   36   35 ar 
    41   36   37 ar 
    42   37   38 ar 
    43   42   38 ar 
    44   38   39 1  
    45   39   51 2  
    46   39   40 am 
    47   41   40 1  
    48   42   41 1  
    49   43   42 ar 
    50   43   44 ar 
    51   49   50 1  
    52   48   49 1  
    53   47   48 1  
    54   52   47 1  
    55   47   46 1  
    56   46   54 1  
    57   46   45 1  
    58   45   56 1  
    59   45   50 1  
    60   54   55 1  
    61   52   53 1  
    62   53   20 1  
    63   53   21 1  
    64   55   57 1  
    65   55   58 1  
    66   55   59 1  
    67   56   60 1  
    68   56   61 1  
    69   56   62 1  
@<TRIPOS>SUBSTRUCTURE
     1 SUB1        1 GROUP

