### 
### Created by X-TOOL on Tue Oct 25 00:26:53 2005
### 

@<TRIPOS>MOLECULE
1cin_ligand
   33    34     1     0     0
SMALL
GAST_HUCK


@<TRIPOS>ATOM
      1 S1         -6.1220    3.6020   15.5180 S.3       1 SUB1       -0.003
      2 C2         -5.2970    2.1280   15.6510 C.2       1 SUB1        0.159
      3 C3         -4.0240    2.1630   15.0510 C.2       1 SUB1       -0.040
      4 C4         -3.7950    3.4340   14.4350 C.2       1 SUB1        0.011
      5 C5         -2.5480    3.8070   13.7010 C.3       1 SUB1        0.002
      6 C6         -2.4560    5.3470   13.4550 C.3       1 SUB1        0.019
      7 C7         -3.7100    5.9440   12.8360 C.3       1 SUB1        0.084
      8 S8         -4.9690    5.9070   14.0730 S.o2      1 SUB1        0.002
      9 C9         -4.9220    4.2820   14.5570 C.2       1 SUB1        0.141
     10 S10        -5.8630    0.9030   16.7140 S.o2      1 SUB1        0.074
     11 O11        -7.2960    0.8830   16.6510 O.2       1 SUB1       -0.150
     12 O12        -5.2860    1.0350   18.0140 O.2       1 SUB1       -0.150
     13 N13        -5.3260   -0.6530   16.1270 N.am      1 SUB1       -0.261
     14 N14        -2.5240    3.0910   12.4030 N.4       1 SUB1        0.236
     15 C15        -3.5370    7.4160   12.4500 C.3       1 SUB1       -0.042
     16 O16        -6.2160    6.2230   13.4320 O.2       1 SUB1       -0.171
     17 O17        -4.5920    6.6940   15.2230 O.2       1 SUB1       -0.171
     18 C18        -1.1720    3.2170   11.8390 C.3       1 SUB1       -0.044
     19 H31        -3.3130    1.3381   15.0551 H         1 SUB1        0.041
     20 H51        -1.6796    3.4963   14.3004 H         1 SUB1        0.097
     21 H61        -1.6096    5.5407   12.7797 H         1 SUB1        0.036
     22 H62        -2.2758    5.8426   14.4203 H         1 SUB1        0.036
     23 H71        -4.0045    5.3569   11.9537 H         1 SUB1        0.054
     24 H131       -5.5678   -1.4923   16.6301 H         1 SUB1        0.163
     25 H141       -3.1965    3.5008   11.7739 H         1 SUB1        0.202
     26 H142       -2.7460    2.1181   12.5449 H         1 SUB1        0.202
     27 H151       -2.7596    7.5033   11.6767 H         1 SUB1        0.025
     28 H152       -3.2389    7.9950   13.3365 H         1 SUB1        0.025
     29 H153       -4.4881    7.8069   12.0595 H         1 SUB1        0.025
     30 H181       -1.1274    2.6928   10.8730 H         1 SUB1        0.078
     31 H182       -0.4427    2.7717   12.5317 H         1 SUB1        0.078
     32 H183       -0.9344    4.2807   11.6903 H         1 SUB1        0.078
     33 H132       -4.7788   -0.7107   15.2920 H         1 SUB1        0.163
@<TRIPOS>BOND
     1    1    9 1  
     2    1    2 1  
     3    2   10 1  
     4    2    3 2  
     5    3    4 1  
     6    4    9 2  
     7    4    5 1  
     8    5   14 1  
     9    5    6 1  
    10    6    7 1  
    11    7   15 1  
    12    7    8 1  
    13    8   17 2  
    14    8   16 2  
    15    8    9 1  
    16   14   18 1  
    17   10   13 1  
    18   10   12 2  
    19   10   11 2  
    20    3   19 1  
    21    5   20 1  
    22    6   21 1  
    23    6   22 1  
    24    7   23 1  
    25   13   24 1  
    26   14   25 1  
    27   14   26 1  
    28   15   27 1  
    29   15   28 1  
    30   15   29 1  
    31   18   30 1  
    32   18   31 1  
    33   18   32 1  
    34   13   33 1  
@<TRIPOS>SUBSTRUCTURE
     1 SUB1        1 GROUP

