### 
### Created by X-TOOL on Sun Jun  3 11:51:49 2007
### 

@<TRIPOS>MOLECULE
2aoe_ligand
  130   130     1     0     0
SMALL
GAST_HUCK


@<TRIPOS>ATOM
      1 N          23.5510   27.5770   17.1710 N.4       1 SUB1        0.238
      2 CA         22.6090   26.5720   17.6270 C.3       1 SUB1        0.065
      3 C          21.1760   26.8060   17.1980 C.2       1 SUB1        0.227
      4 O          20.6440   27.8970   17.4110 O.2       1 SUB1       -0.391
      5 CB         22.7100   26.4570   19.1630 C.3       1 SUB1        0.011
      6 CG         22.8200   25.0930   19.7910 C.3       1 SUB1       -0.013
      7 CD         23.7800   24.0720   19.2270 C.3       1 SUB1        0.063
      8 NE         24.9960   23.8050   19.9170 N.pl3     1 SUB1       -0.272
      9 CZ         26.2610   23.9280   19.5810 C.cat     1 SUB1        0.288
     10 NH1        26.6220   24.3990   18.3970 N.pl3     1 SUB1       -0.285
     11 NH2        27.1550   23.5570   20.5070 N.pl3     1 SUB1       -0.285
     12 N          20.5980   25.7510   16.6180 N.am      1 SUB1       -0.261
     13 CA         19.2000   25.7360   16.2270 C.3       1 SUB1        0.133
     14 C          18.5710   24.4920   16.8540 C.2       1 SUB1        0.202
     15 O          18.7450   23.3960   16.3670 O.2       1 SUB1       -0.394
     16 CB         19.0030   25.7430   14.7100 C.3       1 SUB1       -0.006
     17 CG1        17.5310   25.5780   14.3800 C.3       1 SUB1       -0.058
     18 CG2        19.5290   27.0310   14.0750 C.3       1 SUB1       -0.058
     19 N          17.8700   24.7490   17.9550 N.am      1 SUB1       -0.277
     20 CA         17.2640   23.6930   18.7400 C.3       1 SUB1        0.082
     21 C          15.7430   23.6690   18.5490 C.3       1 SUB1       -0.008
     22 CB         17.7680   23.8870   20.1690 C.3       1 SUB1       -0.023
     23 CG         19.2470   23.6050   20.4140 C.3       1 SUB1       -0.045
     24 CD1        19.6660   23.9140   21.8360 C.3       1 SUB1       -0.063
     25 CD2        19.5840   22.1480   20.1160 C.3       1 SUB1       -0.063
     26 N          15.3850   23.5820   17.2500 N.4       1 SUB1        0.249
     27 CA         14.1560   22.9440   16.7880 C.3       1 SUB1        0.076
     28 C          14.0950   21.5010   17.2480 C.2       1 SUB1        0.229
     29 O          15.1240   20.8180   17.2100 O.2       1 SUB1       -0.391
     30 CB         14.0960   22.9980   15.2640 C.3       1 SUB1        0.042
     31 CG         13.2920   21.8870   14.6190 C.ar      1 SUB1       -0.035
     32 CD1        11.9270   21.8080   14.7900 C.ar      1 SUB1       -0.060
     33 CD2        13.8790   20.9140   13.8360 C.ar      1 SUB1       -0.060
     34 CE1        11.1730   20.7900   14.2200 C.ar      1 SUB1       -0.069
     35 CE2        13.1460   19.8990   13.2570 C.ar      1 SUB1       -0.069
     36 CZ         11.7800   19.8300   13.4290 C.ar      1 SUB1       -0.069
     37 N          12.9410   21.0120   17.6530 N.am      1 SUB1       -0.261
     38 CA         12.8060   19.6050   18.0130 C.3       1 SUB1        0.133
     39 C          11.3900   19.1440   17.6860 C.2       1 SUB1        0.204
     40 O          10.4340   19.8940   17.8860 O.2       1 SUB1       -0.394
     41 CB         13.1320   19.4400   19.4960 C.3       1 SUB1        0.004
     42 CG         13.1200   18.0330   20.0770 C.3       1 SUB1        0.065
     43 CD         11.7470   17.5670   20.5120 C.2       1 SUB1        0.346
     44 OE1        10.8810   18.4510   20.6980 O.2       1 SUB1       -0.262
     45 OE2        11.5070   16.3600   20.5880 O.2       1 SUB1       -0.262
     46 N          11.2670   17.8700   17.2900 N.am      1 SUB1       -0.264
     47 CA          9.9260   17.3060   17.1610 C.3       1 SUB1        0.128
     48 C           9.9270   15.7770   17.2540 C.2       1 SUB1        0.204
     49 O          10.9480   15.1200   17.0410 O.2       1 SUB1       -0.394
     50 CB          9.2900   17.7040   15.8500 C.3       1 SUB1       -0.024
     51 N           8.7510   15.3070   17.5760 N.am      1 SUB1       -0.264
     52 CA          8.0950   14.0340   17.4500 C.3       1 SUB1        0.131
     53 C           8.8820   12.8360   17.9330 C.2       1 SUB1        0.199
     54 O           8.4940   12.2430   18.9540 O.2       1 SUB1       -0.395
     55 CB          7.7580   13.8350   15.9600 C.3       1 SUB1       -0.012
     56 CG          6.2780   13.9310   15.6500 C.3       1 SUB1       -0.049
     57 CD          5.5210   14.9580   16.4760 C.3       1 SUB1       -0.056
     58 CE          4.2130   15.3710   15.8030 C.3       1 SUB1       -0.065
     59 NH2        10.0200   12.4820   17.0980 N.am      1 SUB1       -0.299
     60 H          23.4921   27.6609   16.1562 H         1 SUB1        0.201
     61 H          23.3244   28.4737   17.6012 H         1 SUB1        0.201
     62 H          24.4963   27.3005   17.4362 H         1 SUB1        0.201
     63 H          22.8900   25.6355   17.1453 H         1 SUB1        0.110
     64 H          21.7689   26.8612   19.5359 H         1 SUB1        0.035
     65 H          23.6427   26.9590   19.4201 H         1 SUB1        0.035
     66 H          21.8355   24.6480   19.6464 H         1 SUB1        0.030
     67 H          23.1914   25.2872   20.7972 H         1 SUB1        0.030
     68 H          24.0894   24.4817   18.2655 H         1 SUB1        0.069
     69 H          23.2321   23.1301   19.2532 H         1 SUB1        0.069
     70 H          24.8582   23.4462   20.8618 H         1 SUB1        0.264
     71 H          25.9112   24.6766   17.7202 H         1 SUB1        0.262
     72 H          27.6109   24.4841   18.1619 H         1 SUB1        0.262
     73 H          26.8376   23.2040   21.4098 H         1 SUB1        0.262
     74 H          28.1532   23.6275   20.3093 H         1 SUB1        0.262
     75 H          21.1630   24.9202   16.4422 H         1 SUB1        0.189
     76 H          18.7182   26.6467   16.5828 H         1 SUB1        0.080
     77 H          19.5720   24.9090   14.2992 H         1 SUB1        0.034
     78 H          17.1729   24.6317   14.7855 H         1 SUB1        0.023
     79 H          16.9669   26.4001   14.8204 H         1 SUB1        0.023
     80 H          17.3996   25.5841   13.2980 H         1 SUB1        0.023
     81 H          18.9965   27.8849   14.4938 H         1 SUB1        0.023
     82 H          20.5946   27.1282   14.2828 H         1 SUB1        0.023
     83 H          19.3695   26.9947   12.9973 H         1 SUB1        0.023
     84 H          17.7559   25.7172   18.2550 H         1 SUB1        0.186
     85 H          17.5544   22.6924   18.4197 H         1 SUB1        0.061
     86 H          15.3399   24.6004   18.9467 H         1 SUB1        0.084
     87 H          15.3537   22.7908   19.0641 H         1 SUB1        0.084
     88 H          17.2191   23.1722   20.7820 H         1 SUB1        0.029
     89 H          17.6197   24.9418   20.4005 H         1 SUB1        0.029
     90 H          19.7942   24.2620   19.7379 H         1 SUB1        0.030
     91 H          19.4845   24.9681   22.0460 H         1 SUB1        0.023
     92 H          19.0869   23.2998   22.5256 H         1 SUB1        0.023
     93 H          20.7271   23.6957   21.9563 H         1 SUB1        0.023
     94 H          18.9928   21.5000   20.7630 H         1 SUB1        0.023
     95 H          19.3546   21.9293   19.0731 H         1 SUB1        0.023
     96 H          20.6447   21.9769   20.2996 H         1 SUB1        0.023
     97 H          16.1121   22.9863   16.8541 H         1 SUB1        0.204
     98 H          15.2462   24.5578   16.9875 H         1 SUB1        0.204
     99 H          13.3055   23.4790   17.2104 H         1 SUB1        0.112
    100 H          15.1198   22.8976   14.9036 H         1 SUB1        0.051
    101 H          13.6076   23.9360   14.9999 H         1 SUB1        0.051
    102 H          11.4242   22.5664   15.3900 H         1 SUB1        0.056
    103 H          14.9557   20.9486   13.6698 H         1 SUB1        0.056
    104 H          10.0982   20.7470   14.3965 H         1 SUB1        0.060
    105 H          13.6525   19.1431   12.6568 H         1 SUB1        0.060
    106 H          11.1946   19.0418   12.9555 H         1 SUB1        0.056
    107 H          12.1294   21.6266   17.7158 H         1 SUB1        0.189
    108 H          13.5007   18.9867   17.4444 H         1 SUB1        0.080
    109 H          12.3472   19.9791   20.0267 H         1 SUB1        0.033
    110 H          14.1580   19.7906   19.6077 H         1 SUB1        0.033
    111 H          13.7576   18.0396   20.9611 H         1 SUB1        0.049
    112 H          13.4625   17.3545   19.2957 H         1 SUB1        0.049
    113 H          12.0917   17.3065   17.0832 H         1 SUB1        0.188
    114 H           9.3496   17.7095   17.9935 H         1 SUB1        0.080
    115 H           9.2176   18.7903   15.7978 H         1 SUB1        0.028
    116 H           9.9022   17.3393   15.0252 H         1 SUB1        0.028
    117 H           8.2929   17.2685   15.7843 H         1 SUB1        0.028
    118 H           8.1593   16.0083   18.0215 H         1 SUB1        0.188
    119 H           7.2191   14.0753   18.0975 H         1 SUB1        0.080
    120 H           8.0836   12.8320   15.6841 H         1 SUB1        0.031
    121 H           8.2586   14.6281   15.4046 H         1 SUB1        0.031
    122 H           5.8426   12.9579   15.8773 H         1 SUB1        0.027
    123 H           6.1916   14.2366   14.6073 H         1 SUB1        0.027
    124 H           6.1477   15.8436   16.5814 H         1 SUB1        0.026
    125 H           5.2846   14.5143   17.4431 H         1 SUB1        0.026
    126 H           4.4295   15.8064   14.8275 H         1 SUB1        0.023
    127 H           3.5775   14.4943   15.6781 H         1 SUB1        0.023
    128 H           3.7021   16.1060   16.4250 H         1 SUB1        0.023
    129 H          10.5917   11.6704   17.3324 H         1 SUB1        0.182
    130 H          10.2460   13.0455   16.2783 H         1 SUB1        0.182
@<TRIPOS>BOND
     1    1    2 1  
     2    2    3 1  
     3    2    5 1  
     4    3    4 2  
     5    3   12 am 
     6    5    6 1  
     7    6    7 1  
     8    7    8 1  
     9    8    9 1  
    10    9   10 1  
    11    9   11 1  
    12   12   13 1  
    13   13   14 1  
    14   13   16 1  
    15   14   15 2  
    16   14   19 am 
    17   16   17 1  
    18   16   18 1  
    19   19   20 1  
    20   20   21 1  
    21   20   22 1  
    22   21   26 1  
    23   22   23 1  
    24   23   24 1  
    25   23   25 1  
    26   26   27 1  
    27   27   28 1  
    28   27   30 1  
    29   28   29 2  
    30   28   37 am 
    31   30   31 1  
    32   31   32 ar 
    33   31   33 ar 
    34   32   34 ar 
    35   33   35 ar 
    36   34   36 ar 
    37   35   36 ar 
    38   37   38 1  
    39   38   39 1  
    40   38   41 1  
    41   39   40 2  
    42   39   46 am 
    43   41   42 1  
    44   42   43 1  
    45   43   44 2  
    46   43   45 2  
    47   46   47 1  
    48   47   48 1  
    49   47   50 1  
    50   48   49 2  
    51   48   51 am 
    52   51   52 1  
    53   52   53 1  
    54   52   55 1  
    55   53   54 2  
    56   53   59 am 
    57   55   56 1  
    58   56   57 1  
    59   57   58 1  
    60    1   60 1  
    61    1   61 1  
    62    1   62 1  
    63    2   63 1  
    64    5   64 1  
    65    5   65 1  
    66    6   66 1  
    67    6   67 1  
    68    7   68 1  
    69    7   69 1  
    70    8   70 1  
    71   10   71 1  
    72   10   72 1  
    73   11   73 1  
    74   11   74 1  
    75   12   75 1  
    76   13   76 1  
    77   16   77 1  
    78   17   78 1  
    79   17   79 1  
    80   17   80 1  
    81   18   81 1  
    82   18   82 1  
    83   18   83 1  
    84   19   84 1  
    85   20   85 1  
    86   21   86 1  
    87   21   87 1  
    88   22   88 1  
    89   22   89 1  
    90   23   90 1  
    91   24   91 1  
    92   24   92 1  
    93   24   93 1  
    94   25   94 1  
    95   25   95 1  
    96   25   96 1  
    97   26   97 1  
    98   26   98 1  
    99   27   99 1  
   100   30  100 1  
   101   30  101 1  
   102   32  102 1  
   103   33  103 1  
   104   34  104 1  
   105   35  105 1  
   106   36  106 1  
   107   37  107 1  
   108   38  108 1  
   109   41  109 1  
   110   41  110 1  
   111   42  111 1  
   112   42  112 1  
   113   46  113 1  
   114   47  114 1  
   115   50  115 1  
   116   50  116 1  
   117   50  117 1  
   118   51  118 1  
   119   52  119 1  
   120   55  120 1  
   121   55  121 1  
   122   56  122 1  
   123   56  123 1  
   124   57  124 1  
   125   57  125 1  
   126   58  126 1  
   127   58  127 1  
   128   58  128 1  
   129   59  129 1  
   130   59  130 1  
@<TRIPOS>SUBSTRUCTURE
     1 SUB1        1 GROUP

