2aoe_ligand
  -I-interpret- 

130130  0  0  0  0  0  0  0  0999 V2000
   23.5510   27.5770   17.1710 N   0  3  0  0  0
   22.6090   26.5720   17.6270 C   0  0  0  0  0
   21.1760   26.8060   17.1980 C   0  0  0  0  0
   20.6440   27.8970   17.4110 O   0  0  0  0  0
   22.7100   26.4570   19.1630 C   0  0  0  0  0
   22.8200   25.0930   19.7910 C   0  0  0  0  0
   23.7800   24.0720   19.2270 C   0  0  0  0  0
   24.9960   23.8050   19.9170 N   0  0  0  0  0
   26.2610   23.9280   19.5810 C   0  3  0  0  0
   26.6220   24.3990   18.3970 N   0  0  0  0  0
   27.1550   23.5570   20.5070 N   0  0  0  0  0
   20.5980   25.7510   16.6180 N   0  0  0  0  0
   19.2000   25.7360   16.2270 C   0  0  0  0  0
   18.5710   24.4920   16.8540 C   0  0  0  0  0
   18.7450   23.3960   16.3670 O   0  0  0  0  0
   19.0030   25.7430   14.7100 C   0  0  0  0  0
   17.5310   25.5780   14.3800 C   0  0  0  0  0
   19.5290   27.0310   14.0750 C   0  0  0  0  0
   17.8700   24.7490   17.9550 N   0  0  0  0  0
   17.2640   23.6930   18.7400 C   0  0  0  0  0
   15.7430   23.6690   18.5490 C   0  0  0  0  0
   17.7680   23.8870   20.1690 C   0  0  0  0  0
   19.2470   23.6050   20.4140 C   0  0  0  0  0
   19.6660   23.9140   21.8360 C   0  0  0  0  0
   19.5840   22.1480   20.1160 C   0  0  0  0  0
   15.3850   23.5820   17.2500 N   0  3  0  0  0
   14.1560   22.9440   16.7880 C   0  0  0  0  0
   14.0950   21.5010   17.2480 C   0  0  0  0  0
   15.1240   20.8180   17.2100 O   0  0  0  0  0
   14.0960   22.9980   15.2640 C   0  0  0  0  0
   13.2920   21.8870   14.6190 C   0  0  0  0  0
   11.9270   21.8080   14.7900 C   0  0  0  0  0
   13.8790   20.9140   13.8360 C   0  0  0  0  0
   11.1730   20.7900   14.2200 C   0  0  0  0  0
   13.1460   19.8990   13.2570 C   0  0  0  0  0
   11.7800   19.8300   13.4290 C   0  0  0  0  0
   12.9410   21.0120   17.6530 N   0  0  0  0  0
   12.8060   19.6050   18.0130 C   0  0  0  0  0
   11.3900   19.1440   17.6860 C   0  0  0  0  0
   10.4340   19.8940   17.8860 O   0  0  0  0  0
   13.1320   19.4400   19.4960 C   0  0  0  0  0
   13.1200   18.0330   20.0770 C   0  0  0  0  0
   11.7470   17.5670   20.5120 C   0  0  0  0  0
   10.8810   18.4510   20.6980 O   0  5  0  0  0
   11.5070   16.3600   20.5880 O   0  0  0  0  0
   11.2670   17.8700   17.2900 N   0  0  0  0  0
    9.9260   17.3060   17.1610 C   0  0  0  0  0
    9.9270   15.7770   17.2540 C   0  0  0  0  0
   10.9480   15.1200   17.0410 O   0  0  0  0  0
    9.2900   17.7040   15.8500 C   0  0  0  0  0
    8.7510   15.3070   17.5760 N   0  0  0  0  0
    8.0950   14.0340   17.4500 C   0  0  0  0  0
    8.8820   12.8360   17.9330 C   0  0  0  0  0
    8.4940   12.2430   18.9540 O   0  0  0  0  0
    7.7580   13.8350   15.9600 C   0  0  0  0  0
    6.2780   13.9310   15.6500 C   0  0  0  0  0
    5.5210   14.9580   16.4760 C   0  0  0  0  0
    4.2130   15.3710   15.8030 C   0  0  0  0  0
   10.0200   12.4820   17.0980 N   0  0  0  0  0
   23.4921   27.6609   16.1562 H   0  0  0  0  0
   23.3244   28.4737   17.6012 H   0  0  0  0  0
   24.4963   27.3005   17.4362 H   0  0  0  0  0
   22.8900   25.6355   17.1453 H   0  0  0  0  0
   21.7689   26.8612   19.5359 H   0  0  0  0  0
   23.6427   26.9590   19.4201 H   0  0  0  0  0
   21.8355   24.6480   19.6464 H   0  0  0  0  0
   23.1914   25.2872   20.7972 H   0  0  0  0  0
   24.0894   24.4817   18.2655 H   0  0  0  0  0
   23.2321   23.1301   19.2532 H   0  0  0  0  0
   24.8582   23.4462   20.8618 H   0  0  0  0  0
   25.9112   24.6766   17.7202 H   0  0  0  0  0
   27.6109   24.4841   18.1619 H   0  0  0  0  0
   26.8376   23.2040   21.4098 H   0  0  0  0  0
   28.1532   23.6275   20.3093 H   0  0  0  0  0
   21.1630   24.9202   16.4422 H   0  0  0  0  0
   18.7182   26.6467   16.5828 H   0  0  0  0  0
   19.5720   24.9090   14.2992 H   0  0  0  0  0
   17.1729   24.6317   14.7855 H   0  0  0  0  0
   16.9669   26.4001   14.8204 H   0  0  0  0  0
   17.3996   25.5841   13.2980 H   0  0  0  0  0
   18.9965   27.8849   14.4938 H   0  0  0  0  0
   20.5946   27.1282   14.2828 H   0  0  0  0  0
   19.3695   26.9947   12.9973 H   0  0  0  0  0
   17.7559   25.7172   18.2550 H   0  0  0  0  0
   17.5544   22.6924   18.4197 H   0  0  0  0  0
   15.3399   24.6004   18.9467 H   0  0  0  0  0
   15.3537   22.7908   19.0641 H   0  0  0  0  0
   17.2191   23.1722   20.7820 H   0  0  0  0  0
   17.6197   24.9418   20.4005 H   0  0  0  0  0
   19.7942   24.2620   19.7379 H   0  0  0  0  0
   19.4845   24.9681   22.0460 H   0  0  0  0  0
   19.0869   23.2998   22.5256 H   0  0  0  0  0
   20.7271   23.6957   21.9563 H   0  0  0  0  0
   18.9928   21.5000   20.7630 H   0  0  0  0  0
   19.3546   21.9293   19.0731 H   0  0  0  0  0
   20.6447   21.9769   20.2996 H   0  0  0  0  0
   16.1121   22.9863   16.8541 H   0  0  0  0  0
   15.2462   24.5578   16.9875 H   0  0  0  0  0
   13.3055   23.4790   17.2104 H   0  0  0  0  0
   15.1198   22.8976   14.9036 H   0  0  0  0  0
   13.6076   23.9360   14.9999 H   0  0  0  0  0
   11.4242   22.5664   15.3900 H   0  0  0  0  0
   14.9557   20.9486   13.6698 H   0  0  0  0  0
   10.0982   20.7470   14.3965 H   0  0  0  0  0
   13.6525   19.1431   12.6568 H   0  0  0  0  0
   11.1946   19.0418   12.9555 H   0  0  0  0  0
   12.1294   21.6266   17.7158 H   0  0  0  0  0
   13.5007   18.9867   17.4444 H   0  0  0  0  0
   12.3472   19.9791   20.0267 H   0  0  0  0  0
   14.1580   19.7906   19.6077 H   0  0  0  0  0
   13.7576   18.0396   20.9611 H   0  0  0  0  0
   13.4625   17.3545   19.2957 H   0  0  0  0  0
   12.0917   17.3065   17.0832 H   0  0  0  0  0
    9.3496   17.7095   17.9935 H   0  0  0  0  0
    9.2176   18.7903   15.7978 H   0  0  0  0  0
    9.9022   17.3393   15.0252 H   0  0  0  0  0
    8.2929   17.2685   15.7843 H   0  0  0  0  0
    8.1593   16.0083   18.0215 H   0  0  0  0  0
    7.2191   14.0753   18.0975 H   0  0  0  0  0
    8.0836   12.8320   15.6841 H   0  0  0  0  0
    8.2586   14.6281   15.4046 H   0  0  0  0  0
    5.8426   12.9579   15.8773 H   0  0  0  0  0
    6.1916   14.2366   14.6073 H   0  0  0  0  0
    6.1477   15.8436   16.5814 H   0  0  0  0  0
    5.2846   14.5143   17.4431 H   0  0  0  0  0
    4.4295   15.8064   14.8275 H   0  0  0  0  0
    3.5775   14.4943   15.6781 H   0  0  0  0  0
    3.7021   16.1060   16.4250 H   0  0  0  0  0
   10.5917   11.6704   17.3324 H   0  0  0  0  0
   10.2460   13.0455   16.2783 H   0  0  0  0  0
  1  2  1  0  0  0
  2  3  1  0  0  0
  2  5  1  0  0  0
  3  4  2  0  0  0
  3 12  1  0  0  0
  5  6  1  0  0  0
  6  7  1  0  0  0
  7  8  1  0  0  0
  8  9  1  0  0  0
  9 10  1  0  0  0
  9 11  1  0  0  0
 12 13  1  0  0  0
 13 14  1  0  0  0
 13 16  1  0  0  0
 14 15  2  0  0  0
 14 19  1  0  0  0
 16 17  1  0  0  0
 16 18  1  0  0  0
 19 20  1  0  0  0
 20 21  1  0  0  0
 20 22  1  0  0  0
 21 26  1  0  0  0
 22 23  1  0  0  0
 23 24  1  0  0  0
 23 25  1  0  0  0
 26 27  1  0  0  0
 27 28  1  0  0  0
 27 30  1  0  0  0
 28 29  2  0  0  0
 28 37  1  0  0  0
 30 31  1  0  0  0
 31 32  4  0  0  0
 31 33  4  0  0  0
 32 34  4  0  0  0
 33 35  4  0  0  0
 34 36  4  0  0  0
 35 36  4  0  0  0
 37 38  1  0  0  0
 38 39  1  0  0  0
 38 41  1  0  0  0
 39 40  2  0  0  0
 39 46  1  0  0  0
 41 42  1  0  0  0
 42 43  1  0  0  0
 43 44  1  0  0  0
 43 45  2  0  0  0
 46 47  1  0  0  0
 47 48  1  0  0  0
 47 50  1  0  0  0
 48 49  2  0  0  0
 48 51  1  0  0  0
 51 52  1  0  0  0
 52 53  1  0  0  0
 52 55  1  0  0  0
 53 54  2  0  0  0
 53 59  1  0  0  0
 55 56  1  0  0  0
 56 57  1  0  0  0
 57 58  1  0  0  0
  1 60  1  0  0  0
  1 61  1  0  0  0
  1 62  1  0  0  0
  2 63  1  0  0  0
  5 64  1  0  0  0
  5 65  1  0  0  0
  6 66  1  0  0  0
  6 67  1  0  0  0
  7 68  1  0  0  0
  7 69  1  0  0  0
  8 70  1  0  0  0
 10 71  1  0  0  0
 10 72  1  0  0  0
 11 73  1  0  0  0
 11 74  1  0  0  0
 12 75  1  0  0  0
 13 76  1  0  0  0
 16 77  1  0  0  0
 17 78  1  0  0  0
 17 79  1  0  0  0
 17 80  1  0  0  0
 18 81  1  0  0  0
 18 82  1  0  0  0
 18 83  1  0  0  0
 19 84  1  0  0  0
 20 85  1  0  0  0
 21 86  1  0  0  0
 21 87  1  0  0  0
 22 88  1  0  0  0
 22 89  1  0  0  0
 23 90  1  0  0  0
 24 91  1  0  0  0
 24 92  1  0  0  0
 24 93  1  0  0  0
 25 94  1  0  0  0
 25 95  1  0  0  0
 25 96  1  0  0  0
 26 97  1  0  0  0
 26 98  1  0  0  0
 27 99  1  0  0  0
 30100  1  0  0  0
 30101  1  0  0  0
 32102  1  0  0  0
 33103  1  0  0  0
 34104  1  0  0  0
 35105  1  0  0  0
 36106  1  0  0  0
 37107  1  0  0  0
 38108  1  0  0  0
 41109  1  0  0  0
 41110  1  0  0  0
 42111  1  0  0  0
 42112  1  0  0  0
 46113  1  0  0  0
 47114  1  0  0  0
 50115  1  0  0  0
 50116  1  0  0  0
 50117  1  0  0  0
 51118  1  0  0  0
 52119  1  0  0  0
 55120  1  0  0  0
 55121  1  0  0  0
 56122  1  0  0  0
 56123  1  0  0  0
 57124  1  0  0  0
 57125  1  0  0  0
 58126  1  0  0  0
 58127  1  0  0  0
 58128  1  0  0  0
 59129  1  0  0  0
 59130  1  0  0  0
M  END
$$$$
