### 
### Created by X-TOOL on Mon Oct 24 22:51:44 2005
### 

@<TRIPOS>MOLECULE
1e1x_ligand
   35    36     1     0     0
SMALL
GAST_HUCK


@<TRIPOS>ATOM
      1 H51         2.9492   26.6131    8.7516 H         1 SUB1        0.063
      2 N1          2.1630   28.4110    7.1980 N.ar      1 SUB1       -0.234
      3 C6          1.2250   28.4780    8.1800 C.ar      1 SUB1        0.202
      4 O6          0.9650   27.3090    8.8980 O.3       1 SUB1       -0.286
      5 C1          1.9190   26.2340    8.6810 C.3       1 SUB1        0.082
      6 C3          1.6440   25.2190    9.7930 C.3       1 SUB1       -0.012
      7 C11         0.1380   25.0120   10.0520 C.3       1 SUB1       -0.048
      8 C10        -0.0450   24.0560   11.2680 C.3       1 SUB1       -0.053
      9 C9          0.6520   22.6910   10.9410 C.3       1 SUB1       -0.053
     10 C8          2.1770   22.9700   10.8330 C.3       1 SUB1       -0.053
     11 C7          2.3790   23.8680    9.5680 C.3       1 SUB1       -0.048
     12 C5          0.5130   29.7550    8.4910 C.ar      1 SUB1        0.210
     13 N7         -0.4380   29.6840    9.5840 N.2       1 SUB1       -0.071
     14 O8         -1.0670   30.7150    9.8740 O.2       1 SUB1       -0.269
     15 C4          0.8580   30.8220    7.7690 C.ar      1 SUB1        0.148
     16 N9          0.3240   31.9930    7.9600 N.pl3     1 SUB1       -0.311
     17 N3          1.8720   30.6210    6.7240 N.ar      1 SUB1       -0.243
     18 C2          2.4880   29.5500    6.4660 C.ar      1 SUB1        0.170
     19 N2          3.4110   29.4190    5.5470 N.pl3     1 SUB1       -0.303
     20 H52         1.7641   25.7749    7.6935 H         1 SUB1        0.063
     21 H61         2.0618   25.6512   10.7142 H         1 SUB1        0.033
     22 H71        -0.3311   24.5685    9.1614 H         1 SUB1        0.027
     23 H72        -0.3344   25.9809   10.2713 H         1 SUB1        0.027
     24 H81        -1.1169   23.8901   11.4508 H         1 SUB1        0.026
     25 H82         0.4148   24.5018   12.1623 H         1 SUB1        0.026
     26 H91         0.2731   22.2927    9.9882 H         1 SUB1        0.026
     27 H92         0.4573   21.9659   11.7449 H         1 SUB1        0.026
     28 H101        2.7286   22.0251   10.7195 H         1 SUB1        0.026
     29 H102        2.5312   23.4957   11.7320 H         1 SUB1        0.026
     30 H111        3.4523   24.0520    9.4124 H         1 SUB1        0.027
     31 H112        1.9618   23.3623    8.6847 H         1 SUB1        0.027
     32 H161        0.6171   32.7932    7.3815 H         1 SUB1        0.185
     33 H162       -0.3918   32.1198    8.6897 H         1 SUB1        0.185
     34 H191        3.8659   28.5066    5.4004 H         1 SUB1        0.186
     35 H192        3.6823   30.2283    4.9706 H         1 SUB1        0.186
@<TRIPOS>BOND
     1    2   18 ar 
     2    2    3 ar 
     3    3   12 ar 
     4    3    4 1  
     5    4    5 1  
     6    5    6 1  
     7    6   11 1  
     8    6    7 1  
     9    7    8 1  
    10    8    9 1  
    11    9   10 1  
    12   10   11 1  
    13   12   15 ar 
    14   12   13 1  
    15   13   14 2  
    16   15   17 ar 
    17   15   16 1  
    18   17   18 ar 
    19   18   19 1  
    20    5    1 1  
    21    5   20 1  
    22    6   21 1  
    23    7   22 1  
    24    7   23 1  
    25    8   24 1  
    26    8   25 1  
    27    9   26 1  
    28    9   27 1  
    29   10   28 1  
    30   10   29 1  
    31   11   30 1  
    32   11   31 1  
    33   16   32 1  
    34   16   33 1  
    35   19   34 1  
    36   19   35 1  
@<TRIPOS>SUBSTRUCTURE
     1 SUB1        1 GROUP

