1e1x_ligand
  -I-interpret- 

 35 36  0  0  0  0  0  0  0  0999 V2000
    2.9492   26.6131    8.7516 H   0  0  0  0  0
    2.1630   28.4110    7.1980 N   0  0  0  0  0
    1.2250   28.4780    8.1800 C   0  0  0  0  0
    0.9650   27.3090    8.8980 O   0  0  0  0  0
    1.9190   26.2340    8.6810 C   0  0  0  0  0
    1.6440   25.2190    9.7930 C   0  0  0  0  0
    0.1380   25.0120   10.0520 C   0  0  0  0  0
   -0.0450   24.0560   11.2680 C   0  0  0  0  0
    0.6520   22.6910   10.9410 C   0  0  0  0  0
    2.1770   22.9700   10.8330 C   0  0  0  0  0
    2.3790   23.8680    9.5680 C   0  0  0  0  0
    0.5130   29.7550    8.4910 C   0  0  0  0  0
   -0.4380   29.6840    9.5840 N   0  0  0  0  0
   -1.0670   30.7150    9.8740 O   0  0  0  0  0
    0.8580   30.8220    7.7690 C   0  0  0  0  0
    0.3240   31.9930    7.9600 N   0  0  0  0  0
    1.8720   30.6210    6.7240 N   0  0  0  0  0
    2.4880   29.5500    6.4660 C   0  0  0  0  0
    3.4110   29.4190    5.5470 N   0  0  0  0  0
    1.7641   25.7749    7.6935 H   0  0  0  0  0
    2.0618   25.6512   10.7142 H   0  0  0  0  0
   -0.3311   24.5685    9.1614 H   0  0  0  0  0
   -0.3344   25.9809   10.2713 H   0  0  0  0  0
   -1.1169   23.8901   11.4508 H   0  0  0  0  0
    0.4148   24.5018   12.1623 H   0  0  0  0  0
    0.2731   22.2927    9.9882 H   0  0  0  0  0
    0.4573   21.9659   11.7449 H   0  0  0  0  0
    2.7286   22.0251   10.7195 H   0  0  0  0  0
    2.5312   23.4957   11.7320 H   0  0  0  0  0
    3.4523   24.0520    9.4124 H   0  0  0  0  0
    1.9618   23.3623    8.6847 H   0  0  0  0  0
    0.6171   32.7932    7.3815 H   0  0  0  0  0
   -0.3918   32.1198    8.6897 H   0  0  0  0  0
    3.8659   28.5066    5.4004 H   0  0  0  0  0
    3.6823   30.2283    4.9706 H   0  0  0  0  0
  2 18  4  0  0  0
  2  3  4  0  0  0
  3 12  4  0  0  0
  3  4  1  0  0  0
  4  5  1  0  0  0
  5  6  1  0  0  0
  6 11  1  0  0  0
  6  7  1  0  0  0
  7  8  1  0  0  0
  8  9  1  0  0  0
  9 10  1  0  0  0
 10 11  1  0  0  0
 12 15  4  0  0  0
 12 13  1  0  0  0
 13 14  2  0  0  0
 15 17  4  0  0  0
 15 16  1  0  0  0
 17 18  4  0  0  0
 18 19  1  0  0  0
  5  1  1  0  0  0
  5 20  1  0  0  0
  6 21  1  0  0  0
  7 22  1  0  0  0
  7 23  1  0  0  0
  8 24  1  0  0  0
  8 25  1  0  0  0
  9 26  1  0  0  0
  9 27  1  0  0  0
 10 28  1  0  0  0
 10 29  1  0  0  0
 11 30  1  0  0  0
 11 31  1  0  0  0
 16 32  1  0  0  0
 16 33  1  0  0  0
 19 34  1  0  0  0
 19 35  1  0  0  0
M  END
$$$$
