### 
### Created by X-TOOL on Sun Jun  3 11:49:34 2007
### 

@<TRIPOS>MOLECULE
2a8g_ligand
   32    34     1     0     0
SMALL
GAST_HUCK


@<TRIPOS>ATOM
      1 O5          9.3980    3.5290    0.1720 O.3       1 SUB1       -0.392
      2 C5          9.7610    2.1560    0.2790 C.3       1 SUB1        0.073
      3 C4         10.9090    2.1550    1.2640 C.3       1 SUB1        0.111
      4 O4         10.3990    1.8720    2.5630 O.3       1 SUB1       -0.339
      5 C1         11.4440    1.2120    3.2680 C.3       1 SUB1        0.173
      6 N9         11.0050    0.6070    4.5510 N.pl3     1 SUB1       -0.212
      7 C8          9.8890    0.9350    5.2250 C.2       1 SUB1        0.096
      8 N7          9.8400    0.1690    6.3250 N.2       1 SUB1       -0.324
      9 C5         10.9410   -0.6090    6.3430 C.2       1 SUB1        0.093
     10 C4         11.6880   -0.3360    5.2230 C.2       1 SUB1        0.116
     11 N3         12.8630   -1.0100    5.0090 N.2       1 SUB1       -0.276
     12 C2         13.2930   -1.9410    5.9120 C.2       1 SUB1        0.234
     13 N1         12.5570   -2.2150    6.9990 N.am      1 SUB1       -0.184
     14 C6         11.4090   -1.5690    7.2070 C.2       1 SUB1        0.213
     15 O6         10.7720   -1.8490    8.2170 O.2       1 SUB1       -0.409
     16 N2         14.4390   -2.6400    5.7710 N.pl3     1 SUB1       -0.281
     17 C2         11.9820    0.2230    2.2550 C.3       1 SUB1        0.032
     18 C3         11.9530    1.0830    1.0060 C.3       1 SUB1        0.089
     19 O3         13.2210    1.7220    0.9510 O.3       1 SUB1       -0.389
     20 H           8.6737    3.6174   -0.4364 H         1 SUB1        0.209
     21 H          10.0821    1.7596   -0.6956 H         1 SUB1        0.058
     22 H           8.9197    1.5579    0.6590 H         1 SUB1        0.058
     23 H          11.3896    3.1443    1.2457 H         1 SUB1        0.065
     24 H          12.2324    1.9401    3.5094 H         1 SUB1        0.097
     25 H           9.1575    1.6863    4.9312 H         1 SUB1        0.118
     26 H          12.8690   -2.9037    7.6535 H         1 SUB1        0.252
     27 H          15.0467   -2.4738    4.9562 H         1 SUB1        0.190
     28 H          14.7058   -3.3397    6.4782 H         1 SUB1        0.190
     29 H          11.3306   -0.6582    2.1590 H         1 SUB1        0.034
     30 H          13.0033   -0.1013    2.5037 H         1 SUB1        0.034
     31 H          11.7383    0.5026    0.0966 H         1 SUB1        0.062
     32 H          13.2608    2.2786    0.1822 H         1 SUB1        0.210
@<TRIPOS>BOND
     1    1    2 1  
     2    2    3 1  
     3    3    4 1  
     4    3   18 1  
     5    4    5 1  
     6    5    6 1  
     7    5   17 1  
     8    6    7 1  
     9    6   10 1  
    10    7    8 2  
    11    8    9 1  
    12    9   10 2  
    13    9   14 1  
    14   10   11 1  
    15   11   12 2  
    16   12   13 am 
    17   12   16 1  
    18   13   14 am 
    19   14   15 2  
    20   17   18 1  
    21   18   19 1  
    22    1   20 1  
    23    2   21 1  
    24    2   22 1  
    25    3   23 1  
    26    5   24 1  
    27    7   25 1  
    28   13   26 1  
    29   16   27 1  
    30   16   28 1  
    31   17   29 1  
    32   17   30 1  
    33   18   31 1  
    34   19   32 1  
@<TRIPOS>SUBSTRUCTURE
     1 SUB1        1 GROUP

