### 
### Created by X-TOOL on Tue Oct 25 00:06:34 2005
### 

@<TRIPOS>MOLECULE
1h1h_ligand
   38    40     1     0     0
SMALL
GAST_HUCK


@<TRIPOS>ATOM
      1 P1         17.3840   45.0930   -1.9120 P.3       1 SUB1        0.206
      2 O1P        16.5780   43.8740   -1.6950 O.co2     1 SUB1       -0.535
      3 O2P        18.5900   45.0320   -1.0490 O.co2     1 SUB1       -0.535
      4 O3P        16.5790   46.2910   -1.5680 O.co2     1 SUB1       -0.535
      5 P2         22.8280   47.7390   -2.0220 P.3       1 SUB1        0.205
      6 O4P        22.2750   48.9570   -1.3680 O.co2     1 SUB1       -0.535
      7 O5P        23.0750   46.6610   -1.0500 O.co2     1 SUB1       -0.535
      8 O6P        24.0400   48.0830   -2.6690 O.co2     1 SUB1       -0.535
      9 O5'        21.9260   47.2180   -3.2650 O.3       1 SUB1       -0.320
     10 C5'        21.2770   48.3480   -4.0130 C.3       1 SUB1        0.095
     11 C4'        20.0390   47.8340   -4.7520 C.3       1 SUB1        0.118
     12 O4'        20.4320   46.6240   -5.5320 O.3       1 SUB1       -0.336
     13 C3'        18.8240   47.3950   -3.9140 C.3       1 SUB1        0.119
     14 O3'        17.5770   47.7890   -4.4180 O.3       1 SUB1       -0.386
     15 C2'        19.0460   45.8660   -3.8130 C.3       1 SUB1        0.160
     16 O2'        17.8190   45.1750   -3.4900 O.3       1 SUB1       -0.311
     17 C1'        19.5110   45.5250   -5.1880 C.3       1 SUB1        0.205
     18 N9         20.2700   44.2190   -5.2680 N.pl3     1 SUB1       -0.191
     19 C8         21.3070   43.7310   -4.4480 C.2       1 SUB1        0.112
     20 N7         21.7300   42.5290   -4.8360 N.2       1 SUB1       -0.296
     21 C5         20.9610   42.2280   -5.9220 C.ar      1 SUB1        0.105
     22 C6         20.9130   41.0590   -6.8180 C.ar      1 SUB1        0.130
     23 N6         21.6950   40.0100   -6.6900 N.pl3     1 SUB1       -0.315
     24 N1         19.9750   41.1250   -7.8340 N.ar      1 SUB1       -0.270
     25 C2         19.1290   42.2090   -8.0110 C.ar      1 SUB1        0.053
     26 N3         19.1160   43.2950   -7.2410 N.ar      1 SUB1       -0.271
     27 C4         20.0330   43.2570   -6.2300 C.ar      1 SUB1        0.161
     28 H101       20.9790   49.1332   -3.3026 H         1 SUB1        0.064
     29 H102       21.9908   48.7628   -4.7399 H         1 SUB1        0.064
     30 H111       19.7096   48.6310   -5.4348 H         1 SUB1        0.065
     31 H131       18.9050   47.8348   -2.9090 H         1 SUB1        0.065
     32 H141       16.8889   47.4533   -3.8555 H         1 SUB1        0.210
     33 H151       19.8116   45.6236   -3.0613 H         1 SUB1        0.073
     34 H171       18.6561   45.4904   -5.8794 H         1 SUB1        0.100
     35 H191       21.7150   44.2734   -3.5964 H         1 SUB1        0.135
     36 H231       21.6130   39.2230   -7.3494 H         1 SUB1        0.182
     37 H232       22.3897   39.9752   -5.9303 H         1 SUB1        0.182
     38 H251       18.4272   42.1695   -8.8362 H         1 SUB1        0.100
@<TRIPOS>BOND
     1    1   16 1  
     2    1    4 2  
     3    1    3 2  
     4    1    2 2  
     5   16   15 1  
     6   15   17 1  
     7   15   13 1  
     8   13   14 1  
     9   13   11 1  
    10   11   12 1  
    11   11   10 1  
    12   10    9 1  
    13    9    5 1  
    14    5    8 2  
    15    5    7 2  
    16    5    6 2  
    17   12   17 1  
    18   17   18 1  
    19   18   27 1  
    20   18   19 1  
    21   19   20 2  
    22   20   21 1  
    23   21   27 ar 
    24   21   22 ar 
    25   22   24 ar 
    26   22   23 1  
    27   24   25 ar 
    28   25   26 ar 
    29   26   27 ar 
    30   10   28 1  
    31   10   29 1  
    32   11   30 1  
    33   13   31 1  
    34   14   32 1  
    35   15   33 1  
    36   17   34 1  
    37   19   35 1  
    38   23   36 1  
    39   23   37 1  
    40   25   38 1  
@<TRIPOS>SUBSTRUCTURE
     1 SUB1        1 GROUP

