1h1h_ligand
  -I-interpret- 

 38 40  0  0  0  0  0  0  0  0999 V2000
   17.3840   45.0930   -1.9120 P   0  0  0  0  0
   16.5780   43.8740   -1.6950 O   0  0  0  0  0
   18.5900   45.0320   -1.0490 O   0  5  0  0  0
   16.5790   46.2910   -1.5680 O   0  5  0  0  0
   22.8280   47.7390   -2.0220 P   0  0  0  0  0
   22.2750   48.9570   -1.3680 O   0  5  0  0  0
   23.0750   46.6610   -1.0500 O   0  5  0  0  0
   24.0400   48.0830   -2.6690 O   0  0  0  0  0
   21.9260   47.2180   -3.2650 O   0  0  0  0  0
   21.2770   48.3480   -4.0130 C   0  0  0  0  0
   20.0390   47.8340   -4.7520 C   0  0  0  0  0
   20.4320   46.6240   -5.5320 O   0  0  0  0  0
   18.8240   47.3950   -3.9140 C   0  0  0  0  0
   17.5770   47.7890   -4.4180 O   0  0  0  0  0
   19.0460   45.8660   -3.8130 C   0  0  0  0  0
   17.8190   45.1750   -3.4900 O   0  0  0  0  0
   19.5110   45.5250   -5.1880 C   0  0  0  0  0
   20.2700   44.2190   -5.2680 N   0  0  0  0  0
   21.3070   43.7310   -4.4480 C   0  0  0  0  0
   21.7300   42.5290   -4.8360 N   0  0  0  0  0
   20.9610   42.2280   -5.9220 C   0  0  0  0  0
   20.9130   41.0590   -6.8180 C   0  0  0  0  0
   21.6950   40.0100   -6.6900 N   0  0  0  0  0
   19.9750   41.1250   -7.8340 N   0  0  0  0  0
   19.1290   42.2090   -8.0110 C   0  0  0  0  0
   19.1160   43.2950   -7.2410 N   0  0  0  0  0
   20.0330   43.2570   -6.2300 C   0  0  0  0  0
   20.9790   49.1332   -3.3026 H   0  0  0  0  0
   21.9908   48.7628   -4.7399 H   0  0  0  0  0
   19.7096   48.6310   -5.4348 H   0  0  0  0  0
   18.9050   47.8348   -2.9090 H   0  0  0  0  0
   16.8889   47.4533   -3.8555 H   0  0  0  0  0
   19.8116   45.6236   -3.0613 H   0  0  0  0  0
   18.6561   45.4904   -5.8794 H   0  0  0  0  0
   21.7150   44.2734   -3.5964 H   0  0  0  0  0
   21.6130   39.2230   -7.3494 H   0  0  0  0  0
   22.3897   39.9752   -5.9303 H   0  0  0  0  0
   18.4272   42.1695   -8.8362 H   0  0  0  0  0
  1 16  1  0  0  0
  1  4  1  0  0  0
  1  3  1  0  0  0
  1  2  2  0  0  0
 16 15  1  0  0  0
 15 17  1  0  0  0
 15 13  1  0  0  0
 13 14  1  0  0  0
 13 11  1  0  0  0
 11 12  1  0  0  0
 11 10  1  0  0  0
 10  9  1  0  0  0
  9  5  1  0  0  0
  5  8  2  0  0  0
  5  7  1  0  0  0
  5  6  1  0  0  0
 12 17  1  0  0  0
 17 18  1  0  0  0
 18 27  1  0  0  0
 18 19  1  0  0  0
 19 20  2  0  0  0
 20 21  1  0  0  0
 21 27  4  0  0  0
 21 22  4  0  0  0
 22 24  4  0  0  0
 22 23  1  0  0  0
 24 25  4  0  0  0
 25 26  4  0  0  0
 26 27  4  0  0  0
 10 28  1  0  0  0
 10 29  1  0  0  0
 11 30  1  0  0  0
 13 31  1  0  0  0
 14 32  1  0  0  0
 15 33  1  0  0  0
 17 34  1  0  0  0
 19 35  1  0  0  0
 23 36  1  0  0  0
 23 37  1  0  0  0
 25 38  1  0  0  0
M  END
$$$$
