### 
### Created by X-TOOL on Mon Oct 24 22:55:21 2005
### 

@<TRIPOS>MOLECULE
1xhy_ligand
   30    30     1     0     0
SMALL
GAST_HUCK


@<TRIPOS>ATOM
      1 N          12.5840    7.2410   24.6640 N.3       1 SUB1       -0.299
      2 CD         13.0020    8.6420   24.3830 C.3       1 SUB1        0.003
      3 CD1        15.0920   10.3470   22.8180 C.3       1 SUB1       -0.062
      4 CD2        16.9690    9.3740   24.2830 C.3       1 SUB1       -0.062
      5 CA         13.7070    6.3650   24.8550 C.3       1 SUB1        0.052
      6 CB         14.9130    7.1570   24.4620 C.3       1 SUB1        0.001
      7 CB1        15.0390    6.9700   22.9400 C.3       1 SUB1       -0.007
      8 CG         14.5200    8.5810   24.5590 C.3       1 SUB1       -0.016
      9 CG1        15.7450    5.7410   22.4050 C.2       1 SUB1        0.029
     10 CG2        15.4890    9.6650   24.0820 C.3       1 SUB1       -0.042
     11 C          13.8130    6.1160   26.3680 C.2       1 SUB1        0.045
     12 O          12.9650    6.4240   27.2290 O.co2     1 SUB1       -0.565
     13 OD1        15.7330    5.5370   21.0590 O.co2     1 SUB1       -0.567
     14 OD2        16.3310    4.9990   23.1790 O.co2     1 SUB1       -0.567
     15 OXT        14.9050    5.5720   26.8230 O.co2     1 SUB1       -0.565
     16 H11        11.9991    6.8793   23.8313 H         1 SUB1        0.126
     17 H21        12.5475    9.3428   25.0987 H         1 SUB1        0.043
     18 H22        12.7330    8.9384   23.3584 H         1 SUB1        0.043
     19 H31        15.8458   11.1047   22.5578 H         1 SUB1        0.023
     20 H32        14.1151   10.8337   22.9551 H         1 SUB1        0.023
     21 H33        15.0221    9.6061   22.0079 H         1 SUB1        0.023
     22 H41        17.1158    8.8721   25.2507 H         1 SUB1        0.023
     23 H42        17.5334   10.3181   24.2703 H         1 SUB1        0.023
     24 H43        17.3277    8.7214   23.4734 H         1 SUB1        0.023
     25 H51        13.6139    5.4299   24.2833 H         1 SUB1        0.068
     26 H61        15.8173    6.8961   25.0314 H         1 SUB1        0.039
     27 H71        15.5790    7.8461   22.5516 H         1 SUB1        0.049
     28 H72        14.0178    6.9580   22.5315 H         1 SUB1        0.049
     29 H81        14.6045    8.7590   25.6412 H         1 SUB1        0.032
     30 H101       15.3217   10.4596   24.8240 H         1 SUB1        0.030
@<TRIPOS>BOND
     1    2    1 1  
     2    5    1 1  
     3    8    2 1  
     4   10    3 1  
     5   10    4 1  
     6    6    5 1  
     7    5   11 1  
     8    6    7 1  
     9    8    6 1  
    10    7    9 1  
    11    8   10 1  
    12    9   13 2  
    13    9   14 2  
    14   11   12 2  
    15   11   15 2  
    16    1   16 1  
    17    2   17 1  
    18    2   18 1  
    19    3   19 1  
    20    3   20 1  
    21    3   21 1  
    22    4   22 1  
    23    4   23 1  
    24    4   24 1  
    25    5   25 1  
    26    6   26 1  
    27    7   27 1  
    28    7   28 1  
    29    8   29 1  
    30   10   30 1  
@<TRIPOS>SUBSTRUCTURE
     1 SUB1        1 GROUP

