### 
### Created by X-TOOL on Sun Jun  3 11:11:34 2007
### 

@<TRIPOS>MOLECULE
1w7g_ligand
   68    69     1     0     0
SMALL
GAST_HUCK


@<TRIPOS>ATOM
      1 C1         17.1550  -17.2920   21.9850 C.ar      1 SUB1        0.137
      2 S11        15.4240  -17.5330   21.9250 S.o2      1 SUB1        0.077
      3 N12        14.5230  -16.0470   21.9810 N.am      1 SUB1       -0.225
      4 C13        14.7640  -15.0710   20.8850 C.3       1 SUB1        0.127
      5 O24        14.9270  -18.4420   23.1210 O.2       1 SUB1       -0.150
      6 O25        15.0100  -18.2220   20.5560 O.2       1 SUB1       -0.150
      7 C2         17.9760  -17.7160   20.9080 C.ar      1 SUB1       -0.007
      8 C3         19.3800  -17.5020   20.9810 C.ar      1 SUB1       -0.030
      9 C4         19.9490  -16.8740   22.1240 C.ar      1 SUB1       -0.031
     10 C5         19.1160  -16.4470   23.2130 C.ar      1 SUB1        0.050
     11 C6         19.7500  -15.7570   24.4540 C.3       1 SUB1        0.377
     12 F61        20.6470  -16.5810   25.0600 F         1 SUB1       -0.220
     13 F1         20.3990  -14.6160   24.0760 F         1 SUB1       -0.220
     14 F6         18.7940  -15.4200   25.3640 F         1 SUB1       -0.220
     15 C10        17.7110  -16.6690   23.1270 C.ar      1 SUB1       -0.005
     16 C14        15.9460  -14.0500   21.2480 C.2       1 SUB1        0.200
     17 O15        16.1420  -13.8000   22.4500 O.2       1 SUB1       -0.395
     18 N26        16.7510  -13.4650   20.2720 N.am      1 SUB1       -0.269
     19 C27        18.0170  -12.7810   20.5730 C.3       1 SUB1        0.047
     20 C28        19.1040  -13.4510   19.8090 C.3       1 SUB1        0.019
     21 N29        18.7460  -13.4100   18.3240 N.3       1 SUB1       -0.298
     22 C30        17.4500  -14.1370   18.0010 C.3       1 SUB1        0.019
     23 C31        16.3150  -13.4990   18.8050 C.3       1 SUB1        0.047
     24 C32        19.5480  -14.4100   17.6120 C.3       1 SUB1        0.004
     25 C16        13.3380  -14.4880   20.6240 C.3       1 SUB1       -0.013
     26 C17        12.6070  -13.7300   21.7600 C.3       1 SUB1       -0.016
     27 C18        12.3000  -12.3150   21.2670 C.3       1 SUB1        0.063
     28 N19        11.5910  -11.4370   22.2280 N.pl3     1 SUB1       -0.272
     29 C20        12.1740  -10.8070   23.2440 C.cat     1 SUB1        0.288
     30 N21        13.1420   -9.9390   23.1310 N.pl3     1 SUB1       -0.285
     31 N22        11.7590  -11.0560   24.4550 N.pl3     1 SUB1       -0.285
     32 C33        20.4690  -14.0070   16.4240 C.3       1 SUB1        0.000
     33 C8         20.4480  -12.5070   16.0730 C.3       1 SUB1       -0.034
     34 N9         19.0800  -12.1030   15.6960 N.4       1 SUB1        0.219
     35 H          13.8595  -15.8535   22.7312 H         1 SUB1        0.171
     36 H          15.1578  -15.4835   19.9561 H         1 SUB1        0.075
     37 H          17.5361  -18.1996   20.0358 H         1 SUB1        0.088
     38 H          20.0218  -17.8198   20.1593 H         1 SUB1        0.070
     39 H          21.0263  -16.7157   22.1734 H         1 SUB1        0.085
     40 H          17.0616  -16.3573   23.9450 H         1 SUB1        0.087
     41 H          18.2248  -12.8329   21.6418 H         1 SUB1        0.054
     42 H          17.9517  -11.7312   20.2871 H         1 SUB1        0.054
     43 H          19.2093  -14.4846   20.1388 H         1 SUB1        0.045
     44 H          20.0504  -12.9375   19.9788 H         1 SUB1        0.045
     45 H          17.5419  -15.1910   18.2630 H         1 SUB1        0.045
     46 H          17.2376  -14.0585   16.9348 H         1 SUB1        0.045
     47 H          16.1133  -12.4904   18.4444 H         1 SUB1        0.054
     48 H          15.3978  -14.0774   18.6938 H         1 SUB1        0.054
     49 H          18.8062  -15.0673   17.1583 H         1 SUB1        0.043
     50 H          20.2409  -14.7783   18.3685 H         1 SUB1        0.043
     51 H          12.7140  -15.3594   20.4254 H         1 SUB1        0.031
     52 H          13.4816  -13.7433   19.8411 H         1 SUB1        0.031
     53 H          13.2356  -13.6896   22.6495 H         1 SUB1        0.030
     54 H          11.6827  -14.2454   22.0212 H         1 SUB1        0.030
     55 H          11.6405  -12.4252   20.4062 H         1 SUB1        0.069
     56 H          13.2621  -11.8421   21.0698 H         1 SUB1        0.069
     57 H          10.5873  -11.3070   22.1015 H         1 SUB1        0.264
     58 H          13.5067   -9.6989   22.2092 H         1 SUB1        0.262
     59 H          13.5338   -9.5007   23.9645 H         1 SUB1        0.262
     60 H          11.0019  -11.7223   24.6078 H         1 SUB1        0.262
     61 H          12.1915  -10.5845   25.2494 H         1 SUB1        0.262
     62 H          20.1077  -14.5432   15.5465 H         1 SUB1        0.033
     63 H          21.4902  -14.2498   16.7178 H         1 SUB1        0.033
     64 H          21.1224  -12.3223   15.2368 H         1 SUB1        0.081
     65 H          20.7694  -11.9289   16.9394 H         1 SUB1        0.081
     66 H          19.0717  -11.1096   15.4647 H         1 SUB1        0.199
     67 H          18.7779  -12.6444   14.8861 H         1 SUB1        0.199
     68 H          18.4479  -12.2766   16.4775 H         1 SUB1        0.199
@<TRIPOS>BOND
     1    1    2 1  
     2    1    7 ar 
     3    1   15 ar 
     4    2    3 1  
     5    2    5 2  
     6    2    6 2  
     7    3    4 1  
     8    4   16 1  
     9    4   25 1  
    10    7    8 ar 
    11    8    9 ar 
    12    9   10 ar 
    13   10   11 1  
    14   10   15 ar 
    15   11   12 1  
    16   11   13 1  
    17   11   14 1  
    18   16   17 2  
    19   16   18 am 
    20   18   19 1  
    21   18   23 1  
    22   19   20 1  
    23   20   21 1  
    24   21   22 1  
    25   21   24 1  
    26   22   23 1  
    27   24   32 1  
    28   25   26 1  
    29   26   27 1  
    30   27   28 1  
    31   28   29 1  
    32   29   30 1  
    33   29   31 1  
    34   32   33 1  
    35   33   34 1  
    36    3   35 1  
    37    4   36 1  
    38    7   37 1  
    39    8   38 1  
    40    9   39 1  
    41   15   40 1  
    42   19   41 1  
    43   19   42 1  
    44   20   43 1  
    45   20   44 1  
    46   22   45 1  
    47   22   46 1  
    48   23   47 1  
    49   23   48 1  
    50   24   49 1  
    51   24   50 1  
    52   25   51 1  
    53   25   52 1  
    54   26   53 1  
    55   26   54 1  
    56   27   55 1  
    57   27   56 1  
    58   28   57 1  
    59   30   58 1  
    60   30   59 1  
    61   31   60 1  
    62   31   61 1  
    63   32   62 1  
    64   32   63 1  
    65   33   64 1  
    66   33   65 1  
    67   34   66 1  
    68   34   67 1  
    69   34   68 1  
@<TRIPOS>SUBSTRUCTURE
     1 SUB1        1 GROUP

