1w7g_ligand
  -I-interpret- 

 68 69  0  0  0  0  0  0  0  0999 V2000
   17.1550  -17.2920   21.9850 C   0  0  0  0  0
   15.4240  -17.5330   21.9250 S   0  0  0  0  0
   14.5230  -16.0470   21.9810 N   0  0  0  0  0
   14.7640  -15.0710   20.8850 C   0  0  0  0  0
   14.9270  -18.4420   23.1210 O   0  0  0  0  0
   15.0100  -18.2220   20.5560 O   0  0  0  0  0
   17.9760  -17.7160   20.9080 C   0  0  0  0  0
   19.3800  -17.5020   20.9810 C   0  0  0  0  0
   19.9490  -16.8740   22.1240 C   0  0  0  0  0
   19.1160  -16.4470   23.2130 C   0  0  0  0  0
   19.7500  -15.7570   24.4540 C   0  0  0  0  0
   20.6470  -16.5810   25.0600 F   0  0  0  0  0
   20.3990  -14.6160   24.0760 F   0  0  0  0  0
   18.7940  -15.4200   25.3640 F   0  0  0  0  0
   17.7110  -16.6690   23.1270 C   0  0  0  0  0
   15.9460  -14.0500   21.2480 C   0  0  0  0  0
   16.1420  -13.8000   22.4500 O   0  0  0  0  0
   16.7510  -13.4650   20.2720 N   0  0  0  0  0
   18.0170  -12.7810   20.5730 C   0  0  0  0  0
   19.1040  -13.4510   19.8090 C   0  0  0  0  0
   18.7460  -13.4100   18.3240 N   0  0  0  0  0
   17.4500  -14.1370   18.0010 C   0  0  0  0  0
   16.3150  -13.4990   18.8050 C   0  0  0  0  0
   19.5480  -14.4100   17.6120 C   0  0  0  0  0
   13.3380  -14.4880   20.6240 C   0  0  0  0  0
   12.6070  -13.7300   21.7600 C   0  0  0  0  0
   12.3000  -12.3150   21.2670 C   0  0  0  0  0
   11.5910  -11.4370   22.2280 N   0  0  0  0  0
   12.1740  -10.8070   23.2440 C   0  3  0  0  0
   13.1420   -9.9390   23.1310 N   0  0  0  0  0
   11.7590  -11.0560   24.4550 N   0  0  0  0  0
   20.4690  -14.0070   16.4240 C   0  0  0  0  0
   20.4480  -12.5070   16.0730 C   0  0  0  0  0
   19.0800  -12.1030   15.6960 N   0  3  0  0  0
   13.8595  -15.8535   22.7312 H   0  0  0  0  0
   15.1578  -15.4835   19.9561 H   0  0  0  0  0
   17.5361  -18.1996   20.0358 H   0  0  0  0  0
   20.0218  -17.8198   20.1593 H   0  0  0  0  0
   21.0263  -16.7157   22.1734 H   0  0  0  0  0
   17.0616  -16.3573   23.9450 H   0  0  0  0  0
   18.2248  -12.8329   21.6418 H   0  0  0  0  0
   17.9517  -11.7312   20.2871 H   0  0  0  0  0
   19.2093  -14.4846   20.1388 H   0  0  0  0  0
   20.0504  -12.9375   19.9788 H   0  0  0  0  0
   17.5419  -15.1910   18.2630 H   0  0  0  0  0
   17.2376  -14.0585   16.9348 H   0  0  0  0  0
   16.1133  -12.4904   18.4444 H   0  0  0  0  0
   15.3978  -14.0774   18.6938 H   0  0  0  0  0
   18.8062  -15.0673   17.1583 H   0  0  0  0  0
   20.2409  -14.7783   18.3685 H   0  0  0  0  0
   12.7140  -15.3594   20.4254 H   0  0  0  0  0
   13.4816  -13.7433   19.8411 H   0  0  0  0  0
   13.2356  -13.6896   22.6495 H   0  0  0  0  0
   11.6827  -14.2454   22.0212 H   0  0  0  0  0
   11.6405  -12.4252   20.4062 H   0  0  0  0  0
   13.2621  -11.8421   21.0698 H   0  0  0  0  0
   10.5873  -11.3070   22.1015 H   0  0  0  0  0
   13.5067   -9.6989   22.2092 H   0  0  0  0  0
   13.5338   -9.5007   23.9645 H   0  0  0  0  0
   11.0019  -11.7223   24.6078 H   0  0  0  0  0
   12.1915  -10.5845   25.2494 H   0  0  0  0  0
   20.1077  -14.5432   15.5465 H   0  0  0  0  0
   21.4902  -14.2498   16.7178 H   0  0  0  0  0
   21.1224  -12.3223   15.2368 H   0  0  0  0  0
   20.7694  -11.9289   16.9394 H   0  0  0  0  0
   19.0717  -11.1096   15.4647 H   0  0  0  0  0
   18.7779  -12.6444   14.8861 H   0  0  0  0  0
   18.4479  -12.2766   16.4775 H   0  0  0  0  0
  1  2  1  0  0  0
  1  7  4  0  0  0
  1 15  4  0  0  0
  2  3  1  0  0  0
  2  5  2  0  0  0
  2  6  2  0  0  0
  3  4  1  0  0  0
  4 16  1  0  0  0
  4 25  1  0  0  0
  7  8  4  0  0  0
  8  9  4  0  0  0
  9 10  4  0  0  0
 10 11  1  0  0  0
 10 15  4  0  0  0
 11 12  1  0  0  0
 11 13  1  0  0  0
 11 14  1  0  0  0
 16 17  2  0  0  0
 16 18  1  0  0  0
 18 19  1  0  0  0
 18 23  1  0  0  0
 19 20  1  0  0  0
 20 21  1  0  0  0
 21 22  1  0  0  0
 21 24  1  0  0  0
 22 23  1  0  0  0
 24 32  1  0  0  0
 25 26  1  0  0  0
 26 27  1  0  0  0
 27 28  1  0  0  0
 28 29  1  0  0  0
 29 30  1  0  0  0
 29 31  1  0  0  0
 32 33  1  0  0  0
 33 34  1  0  0  0
  3 35  1  0  0  0
  4 36  1  0  0  0
  7 37  1  0  0  0
  8 38  1  0  0  0
  9 39  1  0  0  0
 15 40  1  0  0  0
 19 41  1  0  0  0
 19 42  1  0  0  0
 20 43  1  0  0  0
 20 44  1  0  0  0
 22 45  1  0  0  0
 22 46  1  0  0  0
 23 47  1  0  0  0
 23 48  1  0  0  0
 24 49  1  0  0  0
 24 50  1  0  0  0
 25 51  1  0  0  0
 25 52  1  0  0  0
 26 53  1  0  0  0
 26 54  1  0  0  0
 27 55  1  0  0  0
 27 56  1  0  0  0
 28 57  1  0  0  0
 30 58  1  0  0  0
 30 59  1  0  0  0
 31 60  1  0  0  0
 31 61  1  0  0  0
 32 62  1  0  0  0
 32 63  1  0  0  0
 33 64  1  0  0  0
 33 65  1  0  0  0
 34 66  1  0  0  0
 34 67  1  0  0  0
 34 68  1  0  0  0
M  END
$$$$
