### 
### Created by X-TOOL on Mon Oct 24 21:53:44 2005
### 

@<TRIPOS>MOLECULE
1utp_ligand
   27    27     1     0     0
SMALL
GAST_HUCK


@<TRIPOS>ATOM
      1 C1         45.1120   18.4410   52.3110 C.3       1 SUB1       -0.035
      2 C2         45.3410   18.6890   50.8450 C.3       1 SUB1       -0.011
      3 C3         45.9470   20.0530   50.5420 C.3       1 SUB1       -0.038
      4 C4         44.9500   20.8470   49.7010 C.3       1 SUB1       -0.019
      5 C1'        45.1900   22.1990   49.5100 C.ar      1 SUB1       -0.043
      6 C2'        44.4270   22.9590   48.6320 C.ar      1 SUB1       -0.060
      7 C3'        44.7030   24.2970   48.4720 C.ar      1 SUB1       -0.069
      8 C4'        45.7240   24.9230   49.1610 C.ar      1 SUB1       -0.069
      9 C5'        46.4970   24.1830   50.0360 C.ar      1 SUB1       -0.069
     10 C6'        46.2170   22.8440   50.1990 C.ar      1 SUB1       -0.060
     11 N          46.0630   17.4450   52.8970 N.4       1 SUB1        0.219
     12 H11        44.0866   18.0664   52.4460 H         1 SUB1        0.081
     13 H12        45.2283   19.3934   52.8489 H         1 SUB1        0.081
     14 H21        44.3744   18.6153   50.3252 H         1 SUB1        0.032
     15 H22        46.0223   17.9140   50.4640 H         1 SUB1        0.032
     16 H31        46.8863   19.9266   49.9836 H         1 SUB1        0.029
     17 H32        46.1484   20.5873   51.4822 H         1 SUB1        0.029
     18 H41        43.9669   20.7548   50.1857 H         1 SUB1        0.043
     19 H42        44.9141   20.3777   48.7068 H         1 SUB1        0.043
     20 H61        43.6180   22.4996   48.0757 H         1 SUB1        0.056
     21 H71        44.1005   24.8786   47.7837 H         1 SUB1        0.060
     22 H81        45.9162   25.9801   49.0173 H         1 SUB1        0.056
     23 H91        47.3087   24.6478   50.5839 H         1 SUB1        0.060
     24 H101       46.8199   22.2677   50.8915 H         1 SUB1        0.056
     25 H111       45.8597   17.3225   53.8767 H         1 SUB1        0.199
     26 H112       47.0080   17.7789   52.7891 H         1 SUB1        0.199
     27 H113       45.9618   16.5628   52.4200 H         1 SUB1        0.199
@<TRIPOS>BOND
     1    1    2 1  
     2    1   11 1  
     3    2    3 1  
     4    3    4 1  
     5    4    5 1  
     6    5    6 ar 
     7    5   10 ar 
     8    6    7 ar 
     9    7    8 ar 
    10    8    9 ar 
    11    9   10 ar 
    12    1   12 1  
    13    1   13 1  
    14    2   14 1  
    15    2   15 1  
    16    3   16 1  
    17    3   17 1  
    18    4   18 1  
    19    4   19 1  
    20    6   20 1  
    21    7   21 1  
    22    8   22 1  
    23    9   23 1  
    24   10   24 1  
    25   11   25 1  
    26   11   26 1  
    27   11   27 1  
@<TRIPOS>SUBSTRUCTURE
     1 SUB1        1 GROUP

