1utp_ligand
  -I-interpret- 

 27 27  0  0  0  0  0  0  0  0999 V2000
   45.1120   18.4410   52.3110 C   0  0  0  0  0
   45.3410   18.6890   50.8450 C   0  0  0  0  0
   45.9470   20.0530   50.5420 C   0  0  0  0  0
   44.9500   20.8470   49.7010 C   0  0  0  0  0
   45.1900   22.1990   49.5100 C   0  0  0  0  0
   44.4270   22.9590   48.6320 C   0  0  0  0  0
   44.7030   24.2970   48.4720 C   0  0  0  0  0
   45.7240   24.9230   49.1610 C   0  0  0  0  0
   46.4970   24.1830   50.0360 C   0  0  0  0  0
   46.2170   22.8440   50.1990 C   0  0  0  0  0
   46.0630   17.4450   52.8970 N   0  3  0  0  0
   44.0866   18.0664   52.4460 H   0  0  0  0  0
   45.2283   19.3934   52.8489 H   0  0  0  0  0
   44.3744   18.6153   50.3252 H   0  0  0  0  0
   46.0223   17.9140   50.4640 H   0  0  0  0  0
   46.8863   19.9266   49.9836 H   0  0  0  0  0
   46.1484   20.5873   51.4822 H   0  0  0  0  0
   43.9669   20.7548   50.1857 H   0  0  0  0  0
   44.9141   20.3777   48.7068 H   0  0  0  0  0
   43.6180   22.4996   48.0757 H   0  0  0  0  0
   44.1005   24.8786   47.7837 H   0  0  0  0  0
   45.9162   25.9801   49.0173 H   0  0  0  0  0
   47.3087   24.6478   50.5839 H   0  0  0  0  0
   46.8199   22.2677   50.8915 H   0  0  0  0  0
   45.8597   17.3225   53.8767 H   0  0  0  0  0
   47.0080   17.7789   52.7891 H   0  0  0  0  0
   45.9618   16.5628   52.4200 H   0  0  0  0  0
  1  2  1  0  0  0
  1 11  1  0  0  0
  2  3  1  0  0  0
  3  4  1  0  0  0
  4  5  1  0  0  0
  5  6  4  0  0  0
  5 10  4  0  0  0
  6  7  4  0  0  0
  7  8  4  0  0  0
  8  9  4  0  0  0
  9 10  4  0  0  0
  1 12  1  0  0  0
  1 13  1  0  0  0
  2 14  1  0  0  0
  2 15  1  0  0  0
  3 16  1  0  0  0
  3 17  1  0  0  0
  4 18  1  0  0  0
  4 19  1  0  0  0
  6 20  1  0  0  0
  7 21  1  0  0  0
  8 22  1  0  0  0
  9 23  1  0  0  0
 10 24  1  0  0  0
 11 25  1  0  0  0
 11 26  1  0  0  0
 11 27  1  0  0  0
M  END
$$$$
