1qq9_ligand
  -I-interpret- 

 20 19  0  0  0  0  0  0  0  0999 V2000
   16.1610   15.7560   51.9030 N   0  3  0  0  0
   15.0840   16.7390   51.5960 C   0  0  0  0  0
   13.8460   15.9300   51.3670 C   0  0  0  0  0
   12.7950   16.5100   51.4240 O   0  0  0  0  0
   15.4010   17.5300   50.3170 C   0  0  0  0  0
   16.1830   18.8460   50.5020 C   0  0  0  0  0
   17.8520   18.6530   51.0630 S   0  0  0  0  0
   18.6140   17.8140   49.5560 C   0  0  0  0  0
   13.8650   14.7210   51.1540 O   0  5  0  0  0
   15.7727   14.8259   51.9177 H   0  0  0  0  0
   14.9481   17.4329   52.4386 H   0  0  0  0  0
   14.4460   17.7739   49.8287 H   0  0  0  0  0
   15.9936   16.8781   49.6583 H   0  0  0  0  0
   15.6450   19.4621   51.2375 H   0  0  0  0  0
   16.2066   19.3678   49.5339 H   0  0  0  0  0
   18.1021   16.8582   49.3706 H   0  0  0  0  0
   19.6823   17.6280   49.7409 H   0  0  0  0  0
   18.5022   18.4664   48.6774 H   0  0  0  0  0
   16.5618   15.9670   52.8035 H   0  0  0  0  0
   16.8769   15.8101   51.1955 H   0  0  0  0  0
  2  3  1  0  0  0
  2  5  1  0  0  0
  2  1  1  0  0  0
  5  6  1  0  0  0
  6  7  1  0  0  0
  7  8  1  0  0  0
  3  9  1  0  0  0
  3  4  2  0  0  0
  1 10  1  0  0  0
  2 11  1  0  0  0
  5 12  1  0  0  0
  5 13  1  0  0  0
  6 14  1  0  0  0
  6 15  1  0  0  0
  8 16  1  0  0  0
  8 17  1  0  0  0
  8 18  1  0  0  0
  1 19  1  0  0  0
  1 20  1  0  0  0
M  END
$$$$
