### 
### Created by X-TOOL on Mon Oct 24 22:01:11 2005
### 

@<TRIPOS>MOLECULE
1qq9_ligand
   20    19     1     0     0
SMALL
GAST_HUCK


@<TRIPOS>ATOM
      1 N          16.1610   15.7560   51.9030 N.4       1 SUB1        0.238
      2 CA         15.0840   16.7390   51.5960 C.3       1 SUB1        0.016
      3 C          13.8460   15.9300   51.3670 C.2       1 SUB1        0.076
      4 O          12.7950   16.5100   51.4240 O.co2     1 SUB1       -0.561
      5 CB         15.4010   17.5300   50.3170 C.3       1 SUB1        0.011
      6 CG         16.1830   18.8460   50.5020 C.3       1 SUB1        0.001
      7 SD         17.8520   18.6530   51.0630 S.3       1 SUB1       -0.164
      8 CE         18.6140   17.8140   49.5560 C.3       1 SUB1       -0.018
      9 OXT        13.8650   14.7210   51.1540 O.co2     1 SUB1       -0.561
     10 H11        15.7727   14.8259   51.9177 H         1 SUB1        0.202
     11 H21        14.9481   17.4329   52.4386 H         1 SUB1        0.107
     12 H51        14.4460   17.7739   49.8287 H         1 SUB1        0.036
     13 H52        15.9936   16.8781   49.6583 H         1 SUB1        0.036
     14 H61        15.6450   19.4621   51.2375 H         1 SUB1        0.038
     15 H62        16.2066   19.3678   49.5339 H         1 SUB1        0.038
     16 H81        18.1021   16.8582   49.3706 H         1 SUB1        0.034
     17 H82        19.6823   17.6280   49.7409 H         1 SUB1        0.034
     18 H83        18.5022   18.4664   48.6774 H         1 SUB1        0.034
     19 H12        16.5618   15.9670   52.8035 H         1 SUB1        0.202
     20 H13        16.8769   15.8101   51.1955 H         1 SUB1        0.202
@<TRIPOS>BOND
     1    2    3 1  
     2    2    5 1  
     3    2    1 1  
     4    5    6 1  
     5    6    7 1  
     6    7    8 1  
     7    3    9 2  
     8    3    4 2  
     9    1   10 1  
    10    2   11 1  
    11    5   12 1  
    12    5   13 1  
    13    6   14 1  
    14    6   15 1  
    15    8   16 1  
    16    8   17 1  
    17    8   18 1  
    18    1   19 1  
    19    1   20 1  
@<TRIPOS>SUBSTRUCTURE
     1 SUB1        1 GROUP

