### 
### Created by X-TOOL on Mon Oct 24 22:27:29 2005
### 

@<TRIPOS>MOLECULE
1w4p_ligand
   31    32     1     0     0
SMALL
GAST_HUCK


@<TRIPOS>ATOM
      1 N1         36.5800   -2.2380   12.2000 N.am      1 SUB1       -0.162
      2 C2         35.3910   -2.3580   11.4360 C.2       1 SUB1        0.333
      3 N3         34.7510   -3.5840   11.5860 N.am      1 SUB1       -0.186
      4 C4         35.1590   -4.6690   12.3960 C.2       1 SUB1        0.182
      5 C5         36.3730   -4.4580   13.1370 C.2       1 SUB1        0.006
      6 C6         37.0280   -3.2780   13.0180 C.2       1 SUB1        0.059
      7 O2         34.9440   -1.4770   10.6980 O.2       1 SUB1       -0.382
      8 O4         34.4870   -5.6900   12.4210 O.2       1 SUB1       -0.412
      9 C1         37.5040   -1.1350   12.2520 C.3       1 SUB1        0.180
     10 C2         37.3060   -0.1840   13.5540 C.3       1 SUB1        0.036
     11 C3         38.3580    0.9850   13.1620 C.3       1 SUB1        0.110
     12 C4         39.5670    0.2220   12.6020 C.3       1 SUB1        0.115
     13 O3         38.0600    1.9500   12.5300 O.3       1 SUB1       -0.316
     14 O4         38.8610   -0.7360   11.8130 O.3       1 SUB1       -0.339
     15 C5         40.6790    0.0750   13.6260 C.3       1 SUB1        0.073
     16 O5         40.1430   -1.1760   14.2560 O.3       1 SUB1       -0.392
     17 P          37.4770    3.1040   13.3640 P.3       1 SUB1        0.206
     18 O1P        37.4390    4.5680   12.8650 O.co2     1 SUB1       -0.535
     19 O2P        35.9130    3.1080   13.5100 O.co2     1 SUB1       -0.535
     20 O3P        37.7140    3.7810   15.0500 O.co2     1 SUB1       -0.535
     21 H31        33.9085   -3.7124   11.0627 H         1 SUB1        0.226
     22 H51        36.7624   -5.2395   13.7879 H         1 SUB1        0.026
     23 H61        37.9458   -3.1337   13.5861 H         1 SUB1        0.118
     24 H91        36.9688   -0.5631   11.4796 H         1 SUB1        0.097
     25 H101       37.5844   -0.6959   14.4870 H         1 SUB1        0.035
     26 H102       36.2770    0.1957   13.6370 H         1 SUB1        0.035
     27 H111       38.6734    1.4113   14.1257 H         1 SUB1        0.068
     28 H121       40.0517    0.8653   11.8529 H         1 SUB1        0.065
     29 H151       40.7243    0.9197   14.3291 H         1 SUB1        0.058
     30 H152       41.6665   -0.0708   13.1638 H         1 SUB1        0.058
     31 H161       40.0910   -1.8620   13.6008 H         1 SUB1        0.209
@<TRIPOS>BOND
     1    1    2 am 
     2    1    6 1  
     3    1    9 1  
     4    2    3 am 
     5    2    7 2  
     6    3    4 am 
     7    4    5 1  
     8    4    8 2  
     9    5    6 2  
    10    9   10 1  
    11    9   14 1  
    12   10   11 1  
    13   11   12 1  
    14   11   13 1  
    15   12   14 1  
    16   12   15 1  
    17   13   17 1  
    18   15   16 1  
    19   17   18 2  
    20   17   19 2  
    21   17   20 2  
    22    3   21 1  
    23    5   22 1  
    24    6   23 1  
    25    9   24 1  
    26   10   25 1  
    27   10   26 1  
    28   11   27 1  
    29   12   28 1  
    30   15   29 1  
    31   15   30 1  
    32   16   31 1  
@<TRIPOS>SUBSTRUCTURE
     1 SUB1        1 GROUP

