### 
### Created by X-TOOL on Sun Jun  3 11:13:59 2007
### 

@<TRIPOS>MOLECULE
1z6e_ligand
   58    62     1     0     0
SMALL
GAST_HUCK


@<TRIPOS>ATOM
      1 F           2.6460   27.9550   53.1860 F         1 SUB1       -0.221
      2 F1          2.6820   26.4560   54.6720 F         1 SUB1       -0.221
      3 F2          3.5120   26.1060   52.7180 F         1 SUB1       -0.221
      4 OT1        12.2170   27.6850   52.4430 O.3       1 SUB1       -0.191
      5 O1          8.2020   29.3600   56.3580 O.2       1 SUB1       -0.372
      6 N          12.1390   28.5390   51.4060 N.2       1 SUB1       -0.148
      7 N1         10.3140   29.9370   50.4830 N.pl3     1 SUB1       -0.331
      8 N2          6.8810   27.7950   54.3520 N.pl3     1 SUB1       -0.114
      9 N3          5.8980   27.1470   53.6570 N.2       1 SUB1       -0.133
     10 N4          6.2450   30.3470   56.9360 N.am      1 SUB1       -0.234
     11 C          11.0340   27.5590   53.0420 C.ar      1 SUB1        0.148
     12 C1         10.0800   28.4000   52.3350 C.ar      1 SUB1        0.049
     13 C2         10.8570   28.9980   51.3150 C.2       1 SUB1        0.124
     14 C3         10.5740   26.7930   54.2410 C.ar      1 SUB1       -0.023
     15 C4          9.1700   26.8740   54.7090 C.ar      1 SUB1       -0.024
     16 C5          8.2100   27.7260   53.9540 C.ar      1 SUB1        0.124
     17 C6          8.6760   28.5020   52.7610 C.ar      1 SUB1       -0.016
     18 C7          4.7110   27.4850   54.1830 C.2       1 SUB1        0.125
     19 C8          4.9120   28.3780   55.2720 C.2       1 SUB1        0.001
     20 C9          6.3130   28.5580   55.3520 C.2       1 SUB1        0.200
     21 C10         3.3450   26.9950   53.6810 C.3       1 SUB1        0.385
     22 C13         6.9760   29.4340   56.2410 C.2       1 SUB1        0.264
     23 C14         6.7990   31.3390   57.7130 C.ar      1 SUB1        0.094
     24 C15         7.5870   31.0050   58.8890 C.ar      1 SUB1        0.149
     25 C16         8.1980   31.9800   59.7480 C.ar      1 SUB1       -0.006
     26 C17         8.0100   33.3790   59.4090 C.ar      1 SUB1        0.081
     27 C18         7.2340   33.7410   58.2070 C.ar      1 SUB1       -0.044
     28 C19         6.6110   32.7370   57.3450 C.ar      1 SUB1       -0.046
     29 N5          8.4670   34.3420   60.3390 N.pl3     1 SUB1       -0.216
     30 C21         9.7120   34.9040   60.3640 C.2       1 SUB1        0.040
     31 C22         9.7590   35.8160   61.4250 C.2       1 SUB1       -0.035
     32 N6          8.5370   35.8010   62.0450 N.2       1 SUB1       -0.336
     33 C25         7.7650   34.8940   61.3830 C.2       1 SUB1        0.140
     34 F3          7.7730   29.7180   59.1680 F         1 SUB1       -0.195
     35 C11         6.3060   34.5810   61.7770 C.3       1 SUB1        0.076
     36 N7          6.1390   34.1820   63.2100 N.3       1 SUB1       -0.292
     37 C20         6.5330   35.1040   64.3010 C.3       1 SUB1       -0.010
     38 C23         6.3330   32.7740   63.5730 C.3       1 SUB1       -0.010
     39 H          10.9010   30.4104   49.7962 H         1 SUB1        0.170
     40 H           9.3218   30.1642   50.5490 H         1 SUB1        0.170
     41 H           5.2281   30.2933   56.8780 H         1 SUB1        0.222
     42 H          11.2831   26.1645   54.7798 H         1 SUB1        0.057
     43 H           8.8460   26.3199   55.5900 H         1 SUB1        0.060
     44 H           7.9803   29.1373   52.2128 H         1 SUB1        0.060
     45 H           4.1498   28.8274   55.9085 H         1 SUB1        0.056
     46 H           8.7799   31.6815   60.6200 H         1 SUB1        0.053
     47 H           7.1211   34.7948   57.9524 H         1 SUB1        0.051
     48 H           6.0319   33.0214   56.4665 H         1 SUB1        0.048
     49 H          10.5279   34.6808   59.6765 H         1 SUB1        0.080
     50 H          10.6150   36.4288   61.7076 H         1 SUB1        0.041
     51 H           5.9775   33.7407   61.1654 H         1 SUB1        0.066
     52 H           5.7257   35.4908   61.6234 H         1 SUB1        0.066
     53 H           7.5962   35.3295   64.2182 H         1 SUB1        0.039
     54 H           5.9574   36.0262   64.2213 H         1 SUB1        0.039
     55 H           6.3342   34.6322   65.2633 H         1 SUB1        0.039
     56 H           5.6186   32.1577   63.0273 H         1 SUB1        0.039
     57 H           7.3478   32.4703   63.3158 H         1 SUB1        0.039
     58 H           6.1763   32.6515   64.6447 H         1 SUB1        0.039
@<TRIPOS>BOND
     1   21    1 1  
     2   21    2 1  
     3   21    3 1  
     4    6    4 1  
     5   11    4 1  
     6   22    5 2  
     7   13    6 2  
     8   13    7 1  
     9    8    9 1  
    10    8   16 1  
    11   20    8 1  
    12   18    9 2  
    13   22   10 am 
    14   10   23 1  
    15   12   11 ar 
    16   14   11 ar 
    17   12   13 1  
    18   17   12 ar 
    19   15   14 ar 
    20   16   15 ar 
    21   16   17 ar 
    22   19   18 1  
    23   18   21 1  
    24   20   19 2  
    25   20   22 1  
    26   23   24 ar 
    27   23   28 ar 
    28   24   25 ar 
    29   24   34 1  
    30   25   26 ar 
    31   26   27 ar 
    32   26   29 1  
    33   27   28 ar 
    34   29   30 1  
    35   29   33 1  
    36   30   31 2  
    37   31   32 1  
    38   32   33 2  
    39   33   35 1  
    40   35   36 1  
    41   36   37 1  
    42   36   38 1  
    43    7   39 1  
    44    7   40 1  
    45   10   41 1  
    46   14   42 1  
    47   15   43 1  
    48   17   44 1  
    49   19   45 1  
    50   25   46 1  
    51   27   47 1  
    52   28   48 1  
    53   30   49 1  
    54   31   50 1  
    55   35   51 1  
    56   35   52 1  
    57   37   53 1  
    58   37   54 1  
    59   37   55 1  
    60   38   56 1  
    61   38   57 1  
    62   38   58 1  
@<TRIPOS>SUBSTRUCTURE
     1 SUB1        1 GROUP

