1z6e_ligand
  -I-interpret- 

 58 62  0  0  0  0  0  0  0  0999 V2000
    2.6460   27.9550   53.1860 F   0  0  0  0  0
    2.6820   26.4560   54.6720 F   0  0  0  0  0
    3.5120   26.1060   52.7180 F   0  0  0  0  0
   12.2170   27.6850   52.4430 O   0  0  0  0  0
    8.2020   29.3600   56.3580 O   0  0  0  0  0
   12.1390   28.5390   51.4060 N   0  0  0  0  0
   10.3140   29.9370   50.4830 N   0  0  0  0  0
    6.8810   27.7950   54.3520 N   0  0  0  0  0
    5.8980   27.1470   53.6570 N   0  0  0  0  0
    6.2450   30.3470   56.9360 N   0  0  0  0  0
   11.0340   27.5590   53.0420 C   0  0  0  0  0
   10.0800   28.4000   52.3350 C   0  0  0  0  0
   10.8570   28.9980   51.3150 C   0  0  0  0  0
   10.5740   26.7930   54.2410 C   0  0  0  0  0
    9.1700   26.8740   54.7090 C   0  0  0  0  0
    8.2100   27.7260   53.9540 C   0  0  0  0  0
    8.6760   28.5020   52.7610 C   0  0  0  0  0
    4.7110   27.4850   54.1830 C   0  0  0  0  0
    4.9120   28.3780   55.2720 C   0  0  0  0  0
    6.3130   28.5580   55.3520 C   0  0  0  0  0
    3.3450   26.9950   53.6810 C   0  0  0  0  0
    6.9760   29.4340   56.2410 C   0  0  0  0  0
    6.7990   31.3390   57.7130 C   0  0  0  0  0
    7.5870   31.0050   58.8890 C   0  0  0  0  0
    8.1980   31.9800   59.7480 C   0  0  0  0  0
    8.0100   33.3790   59.4090 C   0  0  0  0  0
    7.2340   33.7410   58.2070 C   0  0  0  0  0
    6.6110   32.7370   57.3450 C   0  0  0  0  0
    8.4670   34.3420   60.3390 N   0  0  0  0  0
    9.7120   34.9040   60.3640 C   0  0  0  0  0
    9.7590   35.8160   61.4250 C   0  0  0  0  0
    8.5370   35.8010   62.0450 N   0  0  0  0  0
    7.7650   34.8940   61.3830 C   0  0  0  0  0
    7.7730   29.7180   59.1680 F   0  0  0  0  0
    6.3060   34.5810   61.7770 C   0  0  0  0  0
    6.1390   34.1820   63.2100 N   0  0  0  0  0
    6.5330   35.1040   64.3010 C   0  0  0  0  0
    6.3330   32.7740   63.5730 C   0  0  0  0  0
   10.9010   30.4104   49.7962 H   0  0  0  0  0
    9.3218   30.1642   50.5490 H   0  0  0  0  0
    5.2281   30.2933   56.8780 H   0  0  0  0  0
   11.2831   26.1645   54.7798 H   0  0  0  0  0
    8.8460   26.3199   55.5900 H   0  0  0  0  0
    7.9803   29.1373   52.2128 H   0  0  0  0  0
    4.1498   28.8274   55.9085 H   0  0  0  0  0
    8.7799   31.6815   60.6200 H   0  0  0  0  0
    7.1211   34.7948   57.9524 H   0  0  0  0  0
    6.0319   33.0214   56.4665 H   0  0  0  0  0
   10.5279   34.6808   59.6765 H   0  0  0  0  0
   10.6150   36.4288   61.7076 H   0  0  0  0  0
    5.9775   33.7407   61.1654 H   0  0  0  0  0
    5.7257   35.4908   61.6234 H   0  0  0  0  0
    7.5962   35.3295   64.2182 H   0  0  0  0  0
    5.9574   36.0262   64.2213 H   0  0  0  0  0
    6.3342   34.6322   65.2633 H   0  0  0  0  0
    5.6186   32.1577   63.0273 H   0  0  0  0  0
    7.3478   32.4703   63.3158 H   0  0  0  0  0
    6.1763   32.6515   64.6447 H   0  0  0  0  0
 21  1  1  0  0  0
 21  2  1  0  0  0
 21  3  1  0  0  0
  6  4  1  0  0  0
 11  4  1  0  0  0
 22  5  2  0  0  0
 13  6  2  0  0  0
 13  7  1  0  0  0
  8  9  1  0  0  0
  8 16  1  0  0  0
 20  8  1  0  0  0
 18  9  2  0  0  0
 22 10  1  0  0  0
 10 23  1  0  0  0
 12 11  4  0  0  0
 14 11  4  0  0  0
 12 13  1  0  0  0
 17 12  4  0  0  0
 15 14  4  0  0  0
 16 15  4  0  0  0
 16 17  4  0  0  0
 19 18  1  0  0  0
 18 21  1  0  0  0
 20 19  2  0  0  0
 20 22  1  0  0  0
 23 24  4  0  0  0
 23 28  4  0  0  0
 24 25  4  0  0  0
 24 34  1  0  0  0
 25 26  4  0  0  0
 26 27  4  0  0  0
 26 29  1  0  0  0
 27 28  4  0  0  0
 29 30  1  0  0  0
 29 33  1  0  0  0
 30 31  2  0  0  0
 31 32  1  0  0  0
 32 33  2  0  0  0
 33 35  1  0  0  0
 35 36  1  0  0  0
 36 37  1  0  0  0
 36 38  1  0  0  0
  7 39  1  0  0  0
  7 40  1  0  0  0
 10 41  1  0  0  0
 14 42  1  0  0  0
 15 43  1  0  0  0
 17 44  1  0  0  0
 19 45  1  0  0  0
 25 46  1  0  0  0
 27 47  1  0  0  0
 28 48  1  0  0  0
 30 49  1  0  0  0
 31 50  1  0  0  0
 35 51  1  0  0  0
 35 52  1  0  0  0
 37 53  1  0  0  0
 37 54  1  0  0  0
 37 55  1  0  0  0
 38 56  1  0  0  0
 38 57  1  0  0  0
 38 58  1  0  0  0
M  END
$$$$
