### 
### Created by X-TOOL on Mon Oct 24 22:49:13 2005
### 

@<TRIPOS>MOLECULE
1w5v_ligand
   88    93     1     0     0
SMALL
GAST_HUCK


@<TRIPOS>ATOM
      1 C01         9.6410   24.0370    2.1640 C.ar      1 SUB1       -0.019
      2 C02         8.9980   25.2930    1.7340 C.ar      1 SUB1       -0.062
      3 C03         7.5680   25.5240    1.8590 C.ar      1 SUB1       -0.070
      4 C04         6.7000   24.4880    2.4330 C.ar      1 SUB1       -0.035
      5 C05         7.3050   23.2100    2.8790 C.ar      1 SUB1        0.126
      6 C06         8.7460   22.9890    2.7480 C.ar      1 SUB1       -0.025
      7 C07        16.3970   22.0600    8.7660 C.ar      1 SUB1       -0.019
      8 C08        15.6750   20.9270    9.3790 C.ar      1 SUB1       -0.025
      9 C09        16.4360   19.7040    9.7740 C.ar      1 SUB1        0.126
     10 C10        17.9150   19.6440    9.5470 C.ar      1 SUB1       -0.035
     11 C11        18.5990   20.8150    8.9250 C.ar      1 SUB1       -0.070
     12 C12        17.8410   21.9810    8.5500 C.ar      1 SUB1       -0.062
     13 C13        15.7020   23.3240    8.3220 C.3       1 SUB1        0.084
     14 O14        14.5970   23.0950    7.4000 O.3       1 SUB1       -0.341
     15 C15        14.9230   22.5790    6.0040 C.3       1 SUB1        0.178
     16 C16        13.8560   22.8600    4.9680 C.3       1 SUB1        0.129
     17 C17        13.5060   24.2870    4.9800 C.3       1 SUB1        0.129
     18 C18        12.0990   24.4790    4.2820 C.3       1 SUB1        0.178
     19 C19        10.9190   24.4620    5.2400 C.2       1 SUB1        0.210
     20 O20        10.6740   23.4510    5.9320 O.2       1 SUB1       -0.394
     21 N21        10.1210   25.5690    5.3190 N.am      1 SUB1       -0.269
     22 O22        11.8690   23.4890    3.1800 O.3       1 SUB1       -0.341
     23 C23        11.1650   23.9350    1.9790 C.3       1 SUB1        0.084
     24 O24        14.5780   25.0440    4.3620 O.3       1 SUB1       -0.384
     25 O25        14.3140   22.5350    3.5900 O.3       1 SUB1       -0.384
     26 C26        15.0660   21.1010    5.8610 C.2       1 SUB1        0.210
     27 O27        14.0820   20.3750    6.1310 O.2       1 SUB1       -0.394
     28 N28        16.2700   20.6090    5.4590 N.am      1 SUB1       -0.269
     29 C29        16.5430   19.1970    5.3010 C.3       1 SUB1        0.101
     30 C30        16.4980   18.8130    3.8620 C.ar      1 SUB1       -0.013
     31 C31        17.4770   17.7550    3.6020 C.ar      1 SUB1       -0.036
     32 C32        15.6520   19.3330    2.7750 C.ar      1 SUB1       -0.065
     33 C33        15.8120   18.7620    1.4010 C.ar      1 SUB1       -0.075
     34 C34        16.8040   17.7040    1.1730 C.ar      1 SUB1       -0.075
     35 C35        17.9720   18.7290    5.6820 C.3       1 SUB1        0.095
     36 O36        18.8880   19.7880    5.3420 O.3       1 SUB1       -0.386
     37 C37        17.6470   17.1840    2.2590 C.ar      1 SUB1       -0.067
     38 C38        18.1790   17.4220    4.8580 C.3       1 SUB1        0.009
     39 C39         8.9630   25.6810    6.1800 C.3       1 SUB1        0.101
     40 C40         9.2650   26.4220    7.4800 C.ar      1 SUB1       -0.013
     41 C41         8.1160   27.2380    7.8440 C.ar      1 SUB1       -0.036
     42 C42        10.4690   26.4110    8.3240 C.ar      1 SUB1       -0.065
     43 C43        10.5040   27.2470    9.5630 C.ar      1 SUB1       -0.075
     44 C44         9.3320   28.0650    9.9100 C.ar      1 SUB1       -0.075
     45 C45         7.8460   26.5800    5.5770 C.3       1 SUB1        0.095
     46 O46         8.4930   27.6670    4.8690 O.3       1 SUB1       -0.386
     47 C47         8.1300   28.0760    9.0680 C.ar      1 SUB1       -0.067
     48 C48         7.0520   27.0460    6.8070 C.3       1 SUB1        0.009
     49 F49        15.7350   18.5740   10.3740 F         1 SUB1       -0.185
     50 F50         6.4580   22.1660    3.4550 F         1 SUB1       -0.185
     51 H21         9.6162   26.0748    1.3079 H         1 SUB1        0.052
     52 H31         7.1414   26.4638    1.5275 H         1 SUB1        0.059
     53 H41         5.6333   24.6550    2.5292 H         1 SUB1        0.055
     54 H61         9.1727   22.0494    3.0799 H         1 SUB1        0.054
     55 H81        14.6045   20.9823    9.5405 H         1 SUB1        0.054
     56 H101       18.4800   18.7633    9.8303 H         1 SUB1        0.055
     57 H111       19.6692   20.7882    8.7548 H         1 SUB1        0.059
     58 H121       18.3540   22.8212    8.0962 H         1 SUB1        0.052
     59 H131       16.4407   23.9695    7.8244 H         1 SUB1        0.073
     60 H132       15.3096   23.8354    9.2133 H         1 SUB1        0.073
     61 H151       15.8640   23.0629    5.7035 H         1 SUB1        0.087
     62 H161       12.9665   22.2582    5.2062 H         1 SUB1        0.067
     63 H171       13.4141   24.6220    6.0237 H         1 SUB1        0.067
     64 H181       12.1184   25.4776    3.8211 H         1 SUB1        0.087
     65 H211       10.3527   26.3535    4.7438 H         1 SUB1        0.188
     66 H231       11.5490   24.9269    1.6984 H         1 SUB1        0.073
     67 H232       11.3704   23.2196    1.1690 H         1 SUB1        0.073
     68 H241       14.6739   24.7735    3.4564 H         1 SUB1        0.210
     69 H251       13.6133   22.7142    2.9741 H         1 SUB1        0.210
     70 H281       17.0049   21.2581    5.2624 H         1 SUB1        0.188
     71 H291       15.7970   18.6375    5.8845 H         1 SUB1        0.073
     72 H321       14.9264   20.1153    2.9665 H         1 SUB1        0.054
     73 H331       15.2016   19.1259    0.5824 H         1 SUB1        0.054
     74 H341       16.9179   17.2948    0.1757 H         1 SUB1        0.054
     75 H351       18.0486   18.5124    6.7577 H         1 SUB1        0.066
     76 H361       19.7726   19.5243    5.5667 H         1 SUB1        0.210
     77 H371       18.3737   16.4012    2.0742 H         1 SUB1        0.054
     78 H381       19.2463   17.2224    4.6817 H         1 SUB1        0.044
     79 H382       17.7214   16.5551    5.3570 H         1 SUB1        0.044
     80 H391        8.5816   24.6700    6.3858 H         1 SUB1        0.073
     81 H421       11.3233   25.8024    8.0504 H         1 SUB1        0.054
     82 H431       11.3826   27.2502   10.1979 H         1 SUB1        0.054
     83 H441        9.3565   28.6730   10.8071 H         1 SUB1        0.054
     84 H451        7.1979   26.0188    4.8877 H         1 SUB1        0.066
     85 H461        7.8320   28.2339    4.4892 H         1 SUB1        0.210
     86 H471        7.2720   28.6826    9.3344 H         1 SUB1        0.054
     87 H481        6.5247   27.9895    6.6026 H         1 SUB1        0.044
     88 H482        6.3267   26.2813    7.1220 H         1 SUB1        0.044
@<TRIPOS>BOND
     1    1    2 ar 
     2    1    6 ar 
     3   23    1 1  
     4    2    3 ar 
     5    3    4 ar 
     6    5    4 ar 
     7    6    5 ar 
     8    5   50 1  
     9    7    8 ar 
    10    7   12 ar 
    11   13    7 1  
    12    8    9 ar 
    13    9   10 ar 
    14    9   49 1  
    15   11   10 ar 
    16   12   11 ar 
    17   14   13 1  
    18   15   14 1  
    19   16   15 1  
    20   15   26 1  
    21   17   16 1  
    22   16   25 1  
    23   18   17 1  
    24   17   24 1  
    25   18   19 1  
    26   22   18 1  
    27   19   20 2  
    28   19   21 am 
    29   21   39 1  
    30   22   23 1  
    31   26   27 2  
    32   26   28 am 
    33   28   29 1  
    34   29   30 1  
    35   29   35 1  
    36   30   31 ar 
    37   30   32 ar 
    38   31   37 ar 
    39   31   38 1  
    40   32   33 ar 
    41   33   34 ar 
    42   34   37 ar 
    43   35   36 1  
    44   35   38 1  
    45   39   40 1  
    46   39   45 1  
    47   40   41 ar 
    48   40   42 ar 
    49   41   47 ar 
    50   41   48 1  
    51   42   43 ar 
    52   43   44 ar 
    53   44   47 ar 
    54   45   46 1  
    55   45   48 1  
    56    2   51 1  
    57    3   52 1  
    58    4   53 1  
    59    6   54 1  
    60    8   55 1  
    61   10   56 1  
    62   11   57 1  
    63   12   58 1  
    64   13   59 1  
    65   13   60 1  
    66   15   61 1  
    67   16   62 1  
    68   17   63 1  
    69   18   64 1  
    70   21   65 1  
    71   23   66 1  
    72   23   67 1  
    73   24   68 1  
    74   25   69 1  
    75   28   70 1  
    76   29   71 1  
    77   32   72 1  
    78   33   73 1  
    79   34   74 1  
    80   35   75 1  
    81   36   76 1  
    82   37   77 1  
    83   38   78 1  
    84   38   79 1  
    85   39   80 1  
    86   42   81 1  
    87   43   82 1  
    88   44   83 1  
    89   45   84 1  
    90   46   85 1  
    91   47   86 1  
    92   48   87 1  
    93   48   88 1  
@<TRIPOS>SUBSTRUCTURE
     1 SUB1        1 GROUP

