1b3l_ligand
  -I-interpret- 

 54 53  0  0  0  0  0  0  0  0999 V2000
   55.2420    6.2450   94.2520 N   0  3  0  0  0
   54.8870    4.8000   94.0990 C   0  0  0  0  0
   55.7900    4.1440   93.0250 C   0  0  0  0  0
   56.2220    4.8330   92.0790 O   0  0  0  0  0
   53.4070    4.6400   93.7230 C   0  0  0  0  0
   52.9970    5.5020   92.5310 C   0  0  0  0  0
   51.5180    5.2160   92.1420 C   0  0  0  0  0
   50.6320    6.1100   92.9960 C   0  0  0  0  0
   50.9360    7.5370   92.8540 N   0  3  0  0  0
   56.0520    2.8700   93.2420 N   0  0  0  0  0
   56.9980    2.1730   92.3600 C   0  0  0  0  0
   56.3340    1.7810   91.0490 C   0  0  0  0  0
   55.1590    1.4030   91.0950 O   0  0  0  0  0
   57.0540    1.8450   89.9370 N   0  0  0  0  0
   56.5760    1.3980   88.6360 C   0  0  0  0  0
   57.4930    0.3690   87.9530 C   0  0  0  0  0
   56.9740   -0.4330   87.1210 O   0  5  0  0  0
   56.4110    2.5450   87.6560 C   0  0  0  0  0
   55.3690    2.0920   86.5410 C   0  0  0  0  0
   55.3460    3.2130   85.5280 C   0  0  0  0  0
   54.6270    2.7790   84.2340 C   0  0  0  0  0
   53.4400    1.9760   84.5750 N   0  3  0  0  0
   58.7360    0.3540   88.1410 O   0  0  0  0  0
   56.0312    6.4689   93.6664 H   0  0  0  0  0
   55.0689    4.2849   95.0538 H   0  0  0  0  0
   53.2163    3.5883   93.4632 H   0  0  0  0  0
   52.7876    4.9089   94.5913 H   0  0  0  0  0
   53.0927    6.5657   92.7941 H   0  0  0  0  0
   53.6553    5.2874   91.6763 H   0  0  0  0  0
   51.3523    5.4479   91.0796 H   0  0  0  0  0
   51.2765    4.1570   92.3157 H   0  0  0  0  0
   49.5834    5.9569   92.7013 H   0  0  0  0  0
   50.7497    5.8221   94.0511 H   0  0  0  0  0
   55.4889    6.4251   95.2251 H   0  0  0  0  0
   50.3162    8.0653   93.4480 H   0  0  0  0  0
   51.8883    7.7149   93.1324 H   0  0  0  0  0
   50.8201    7.8193   91.8933 H   0  0  0  0  0
   55.6123    2.3843   93.9975 H   0  0  0  0  0
   57.8468    2.8360   92.1367 H   0  0  0  0  0
   57.3750    1.2724   92.8667 H   0  0  0  0  0
   57.9784    2.2219   89.9953 H   0  0  0  0  0
   55.5984    0.9181   88.7908 H   0  0  0  0  0
   56.0239    3.4346   88.1744 H   0  0  0  0  0
   57.3790    2.7950   87.1972 H   0  0  0  0  0
   55.6951    1.1590   86.0583 H   0  0  0  0  0
   54.3720    1.9353   86.9784 H   0  0  0  0  0
   54.8116    4.0766   85.9505 H   0  0  0  0  0
   56.3775    3.5143   85.2932 H   0  0  0  0  0
   54.3055    3.6673   83.6705 H   0  0  0  0  0
   55.3121    2.1898   83.6068 H   0  0  0  0  0
   52.9791    1.6939   83.7241 H   0  0  0  0  0
   53.7172    1.1529   85.0865 H   0  0  0  0  0
   52.8112    2.5177   85.1470 H   0  0  0  0  0
   54.4613    6.8215   93.9798 H   0  0  0  0  0
  2  1  1  0  0  0
  2  5  1  0  0  0
  3  2  1  0  0  0
  3  4  2  0  0  0
  5  6  1  0  0  0
  6  7  1  0  0  0
  7  8  1  0  0  0
  8  9  1  0  0  0
 11 10  1  0  0  0
 12 11  1  0  0  0
 12 13  2  0  0  0
 10  3  1  0  0  0
 14 15  1  0  0  0
 15 18  1  0  0  0
 15 16  1  0  0  0
 16 17  1  0  0  0
 16 23  2  0  0  0
 18 19  1  0  0  0
 19 20  1  0  0  0
 20 21  1  0  0  0
 21 22  1  0  0  0
 12 14  1  0  0  0
  1 34  1  0  0  0
  1 24  1  0  0  0
  2 25  1  0  0  0
  5 26  1  0  0  0
  5 27  1  0  0  0
  6 28  1  0  0  0
  6 29  1  0  0  0
  7 30  1  0  0  0
  7 31  1  0  0  0
  8 32  1  0  0  0
  8 33  1  0  0  0
  9 35  1  0  0  0
  9 36  1  0  0  0
  9 37  1  0  0  0
 10 38  1  0  0  0
 11 39  1  0  0  0
 11 40  1  0  0  0
 14 41  1  0  0  0
 15 42  1  0  0  0
 18 43  1  0  0  0
 18 44  1  0  0  0
 19 45  1  0  0  0
 19 46  1  0  0  0
 20 47  1  0  0  0
 20 48  1  0  0  0
 21 49  1  0  0  0
 21 50  1  0  0  0
 22 51  1  0  0  0
 22 52  1  0  0  0
 22 53  1  0  0  0
  1 54  1  0  0  0
M  END
$$$$
