### 
### Created by X-TOOL on Mon Oct 24 23:45:00 2005
### 

@<TRIPOS>MOLECULE
1b3l_ligand
   54    53     1     0     0
SMALL
GAST_HUCK


@<TRIPOS>ATOM
      1 N          55.2420    6.2450   94.2520 N.4       1 SUB1        0.238
      2 CA         54.8870    4.8000   94.0990 C.3       1 SUB1        0.065
      3 C          55.7900    4.1440   93.0250 C.2       1 SUB1        0.227
      4 O          56.2220    4.8330   92.0790 O.2       1 SUB1       -0.391
      5 CB         53.4070    4.6400   93.7230 C.3       1 SUB1        0.008
      6 CG         52.9970    5.5020   92.5310 C.3       1 SUB1       -0.041
      7 CD         51.5180    5.2160   92.1420 C.3       1 SUB1       -0.012
      8 CE         50.6320    6.1100   92.9960 C.3       1 SUB1       -0.035
      9 NZ         50.9360    7.5370   92.8540 N.4       1 SUB1        0.219
     10 N          56.0520    2.8700   93.2420 N.am      1 SUB1       -0.264
     11 CA         56.9980    2.1730   92.3600 C.3       1 SUB1        0.120
     12 C          56.3340    1.7810   91.0490 C.2       1 SUB1        0.202
     13 O          55.1590    1.4030   91.0950 O.2       1 SUB1       -0.395
     14 N          57.0540    1.8450   89.9370 N.am      1 SUB1       -0.269
     15 CA         56.5760    1.3980   88.6360 C.3       1 SUB1        0.081
     16 C          57.4930    0.3690   87.9530 C.2       1 SUB1        0.053
     17 O          56.9740   -0.4330   87.1210 O.co2     1 SUB1       -0.564
     18 CB         56.4110    2.5450   87.6560 C.3       1 SUB1       -0.018
     19 CG         55.3690    2.0920   86.5410 C.3       1 SUB1       -0.043
     20 CD         55.3460    3.2130   85.5280 C.3       1 SUB1       -0.012
     21 CE         54.6270    2.7790   84.2340 C.3       1 SUB1       -0.035
     22 NZ         53.4400    1.9760   84.5750 N.4       1 SUB1        0.219
     23 OXT        58.7360    0.3540   88.1410 O.co2     1 SUB1       -0.564
     24 H11        56.0312    6.4689   93.6664 H         1 SUB1        0.201
     25 H21        55.0689    4.2849   95.0538 H         1 SUB1        0.110
     26 H51        53.2163    3.5883   93.4632 H         1 SUB1        0.035
     27 H52        52.7876    4.9089   94.5913 H         1 SUB1        0.035
     28 H61        53.0927    6.5657   92.7941 H         1 SUB1        0.027
     29 H62        53.6553    5.2874   91.6763 H         1 SUB1        0.027
     30 H71        51.3523    5.4479   91.0796 H         1 SUB1        0.032
     31 H72        51.2765    4.1570   92.3157 H         1 SUB1        0.032
     32 H81        49.5834    5.9569   92.7013 H         1 SUB1        0.081
     33 H82        50.7497    5.8221   94.0511 H         1 SUB1        0.081
     34 H12        55.4889    6.4251   95.2251 H         1 SUB1        0.201
     35 H91        50.3162    8.0653   93.4480 H         1 SUB1        0.199
     36 H92        51.8883    7.7149   93.1324 H         1 SUB1        0.199
     37 H93        50.8201    7.8193   91.8933 H         1 SUB1        0.199
     38 H101       55.6123    2.3843   93.9975 H         1 SUB1        0.188
     39 H111       57.8468    2.8360   92.1367 H         1 SUB1        0.076
     40 H112       57.3750    1.2724   92.8667 H         1 SUB1        0.076
     41 H141       57.9784    2.2219   89.9953 H         1 SUB1        0.190
     42 H151       55.5984    0.9181   88.7908 H         1 SUB1        0.078
     43 H181       56.0239    3.4346   88.1744 H         1 SUB1        0.032
     44 H182       57.3790    2.7950   87.1972 H         1 SUB1        0.032
     45 H191       55.6951    1.1590   86.0583 H         1 SUB1        0.027
     46 H192       54.3720    1.9353   86.9784 H         1 SUB1        0.027
     47 H201       54.8116    4.0766   85.9505 H         1 SUB1        0.032
     48 H202       56.3775    3.5143   85.2932 H         1 SUB1        0.032
     49 H211       54.3055    3.6673   83.6705 H         1 SUB1        0.081
     50 H212       55.3121    2.1898   83.6068 H         1 SUB1        0.081
     51 H221       52.9791    1.6939   83.7241 H         1 SUB1        0.199
     52 H222       53.7172    1.1529   85.0865 H         1 SUB1        0.199
     53 H223       52.8112    2.5177   85.1470 H         1 SUB1        0.199
     54 H13        54.4613    6.8215   93.9798 H         1 SUB1        0.201
@<TRIPOS>BOND
     1    2    1 1  
     2    2    5 1  
     3    3    2 1  
     4    3    4 2  
     5    5    6 1  
     6    6    7 1  
     7    7    8 1  
     8    8    9 1  
     9   11   10 1  
    10   12   11 1  
    11   12   13 2  
    12   10    3 am 
    13   14   15 1  
    14   15   18 1  
    15   15   16 1  
    16   16   17 2  
    17   16   23 2  
    18   18   19 1  
    19   19   20 1  
    20   20   21 1  
    21   21   22 1  
    22   12   14 am 
    23    1   34 1  
    24    1   24 1  
    25    2   25 1  
    26    5   26 1  
    27    5   27 1  
    28    6   28 1  
    29    6   29 1  
    30    7   30 1  
    31    7   31 1  
    32    8   32 1  
    33    8   33 1  
    34    9   35 1  
    35    9   36 1  
    36    9   37 1  
    37   10   38 1  
    38   11   39 1  
    39   11   40 1  
    40   14   41 1  
    41   15   42 1  
    42   18   43 1  
    43   18   44 1  
    44   19   45 1  
    45   19   46 1  
    46   20   47 1  
    47   20   48 1  
    48   21   49 1  
    49   21   50 1  
    50   22   51 1  
    51   22   52 1  
    52   22   53 1  
    53    1   54 1  
@<TRIPOS>SUBSTRUCTURE
     1 SUB1        1 GROUP

