### 
### Created by X-TOOL on Mon Oct 24 22:01:56 2005
### 

@<TRIPOS>MOLECULE
2tmn_ligand
   26    25     1     0     0
SMALL
GAST_HUCK


@<TRIPOS>ATOM
      1 P          51.7110   18.9570   -6.2940 P.3       1 SUB1        0.149
      2 O1P        51.6950   20.5290   -6.1650 O.co2     1 SUB1       -0.551
      3 O2P        53.1510   18.5470   -6.8250 O.co2     1 SUB1       -0.551
      4 O3P        50.5590   18.3330   -7.0080 O.co2     1 SUB1       -0.551
      5 N          51.6470   18.3580   -4.5460 N.am      1 SUB1       -0.306
      6 CA         52.8450   18.2740   -3.7280 C.3       1 SUB1        0.125
      7 C          53.6540   17.0160   -4.0170 C.2       1 SUB1        0.200
      8 O          54.8770   17.0990   -3.8570 O.2       1 SUB1       -0.395
      9 CB         52.5110   18.2580   -2.2300 C.3       1 SUB1       -0.010
     10 CG         53.6580   18.2450   -1.2680 C.3       1 SUB1       -0.042
     11 CD1        54.5690   19.4580   -1.5220 C.3       1 SUB1       -0.062
     12 CD2        52.8570   18.1860    0.0450 C.3       1 SUB1       -0.062
     13 N          53.0330   15.9300   -4.3380 N.am      1 SUB1       -0.299
     14 H51        50.7680   18.0857   -4.1546 H         1 SUB1        0.181
     15 H61        53.4668   19.1547   -3.9464 H         1 SUB1        0.081
     16 H91        51.9078   17.3588   -2.0361 H         1 SUB1        0.032
     17 H92        51.9113   19.1550   -2.0162 H         1 SUB1        0.032
     18 H101       54.2698   17.3371   -1.3744 H         1 SUB1        0.030
     19 H111       54.9658   19.4103   -2.5468 H         1 SUB1        0.023
     20 H112       55.4031   19.4467   -0.8050 H         1 SUB1        0.023
     21 H113       53.9896   20.3845   -1.3959 H         1 SUB1        0.023
     22 H121       52.2155   19.0761    0.1234 H         1 SUB1        0.023
     23 H122       53.5517   18.1585    0.8974 H         1 SUB1        0.023
     24 H123       52.2314   17.2813    0.0526 H         1 SUB1        0.023
     25 H131       53.5506   15.0963   -4.5305 H         1 SUB1        0.182
     26 H132       52.0346   15.9228   -4.3940 H         1 SUB1        0.182
@<TRIPOS>BOND
     1    5    6 1  
     2    6    9 1  
     3    6    7 1  
     4    7    8 2  
     5    9   10 1  
     6   10   11 1  
     7   10   12 1  
     8    1    2 2  
     9    1    3 2  
    10    1    4 2  
    11    1    5 1  
    12    7   13 am 
    13    5   14 1  
    14    6   15 1  
    15    9   16 1  
    16    9   17 1  
    17   10   18 1  
    18   11   19 1  
    19   11   20 1  
    20   11   21 1  
    21   12   22 1  
    22   12   23 1  
    23   12   24 1  
    24   13   25 1  
    25   13   26 1  
@<TRIPOS>SUBSTRUCTURE
     1 SUB1        1 GROUP

