2tmn_ligand
  -I-interpret- 

 26 25  0  0  0  0  0  0  0  0999 V2000
   51.7110   18.9570   -6.2940 P   0  0  0  0  0
   51.6950   20.5290   -6.1650 O   0  5  0  0  0
   53.1510   18.5470   -6.8250 O   0  5  0  0  0
   50.5590   18.3330   -7.0080 O   0  0  0  0  0
   51.6470   18.3580   -4.5460 N   0  0  0  0  0
   52.8450   18.2740   -3.7280 C   0  0  0  0  0
   53.6540   17.0160   -4.0170 C   0  0  0  0  0
   54.8770   17.0990   -3.8570 O   0  0  0  0  0
   52.5110   18.2580   -2.2300 C   0  0  0  0  0
   53.6580   18.2450   -1.2680 C   0  0  0  0  0
   54.5690   19.4580   -1.5220 C   0  0  0  0  0
   52.8570   18.1860    0.0450 C   0  0  0  0  0
   53.0330   15.9300   -4.3380 N   0  0  0  0  0
   50.7680   18.0857   -4.1546 H   0  0  0  0  0
   53.4668   19.1547   -3.9464 H   0  0  0  0  0
   51.9078   17.3588   -2.0361 H   0  0  0  0  0
   51.9113   19.1550   -2.0162 H   0  0  0  0  0
   54.2698   17.3371   -1.3744 H   0  0  0  0  0
   54.9658   19.4103   -2.5468 H   0  0  0  0  0
   55.4031   19.4467   -0.8050 H   0  0  0  0  0
   53.9896   20.3845   -1.3959 H   0  0  0  0  0
   52.2155   19.0761    0.1234 H   0  0  0  0  0
   53.5517   18.1585    0.8974 H   0  0  0  0  0
   52.2314   17.2813    0.0526 H   0  0  0  0  0
   53.5506   15.0963   -4.5305 H   0  0  0  0  0
   52.0346   15.9228   -4.3940 H   0  0  0  0  0
  5  6  1  0  0  0
  6  9  1  0  0  0
  6  7  1  0  0  0
  7  8  2  0  0  0
  9 10  1  0  0  0
 10 11  1  0  0  0
 10 12  1  0  0  0
  1  2  1  0  0  0
  1  3  1  0  0  0
  1  4  2  0  0  0
  1  5  1  0  0  0
  7 13  1  0  0  0
  5 14  1  0  0  0
  6 15  1  0  0  0
  9 16  1  0  0  0
  9 17  1  0  0  0
 10 18  1  0  0  0
 11 19  1  0  0  0
 11 20  1  0  0  0
 11 21  1  0  0  0
 12 22  1  0  0  0
 12 23  1  0  0  0
 12 24  1  0  0  0
 13 25  1  0  0  0
 13 26  1  0  0  0
M  END
$$$$
