1fki_ligand
  -I-interpret- 

 70 71  0  0  0  0  0  0  0  0999 V2000
    6.4655  -43.5661    1.8646 H   0  0  0  0  0
    7.8498  -43.5626    0.7198 H   0  0  0  0  0
    5.3678  -41.7749   -2.3536 H   0  0  0  0  0
    4.5370  -40.9546   -0.9884 H   0  0  0  0  0
    2.6948  -42.4960   -1.1144 H   0  0  0  0  0
    3.5455  -43.4741   -2.3579 H   0  0  0  0  0
    2.0659  -42.1224   -3.6092 H   0  0  0  0  0
    3.6494  -41.2846   -3.7411 H   0  0  0  0  0
    1.5265  -39.8649   -3.3163 H   0  0  0  0  0
    2.9925  -39.5375   -2.3313 H   0  0  0  0  0
    1.9265  -41.0782   -0.5576 H   0  0  0  0  0
    0.4105  -40.9087   -1.5059 H   0  0  0  0  0
    0.2336  -39.1500    0.0106 H   0  0  0  0  0
    0.9659  -38.3439   -1.4179 H   0  0  0  0  0
    3.2248  -38.6714   -0.3983 H   0  0  0  0  0
    2.4371  -39.3727    1.0558 H   0  0  0  0  0
    1.2315  -37.3104    1.4803 H   0  0  0  0  0
    1.7770  -36.6122   -0.0823 H   0  0  0  0  0
    3.1046  -35.6812    1.7196 H   0  0  0  0  0
    4.1302  -36.7598    0.7139 H   0  0  0  0  0
    3.8952  -38.5552    2.3953 H   0  0  0  0  0
    2.8629  -37.4819    3.3998 H   0  0  0  0  0
    5.0452  -37.3350    4.3649 H   0  0  0  0  0
    4.8774  -35.8394    3.3843 H   0  0  0  0  0
    9.1425  -36.9745    2.0716 H   0  0  0  0  0
    9.4803  -36.2772   -0.1702 H   0  0  0  0  0
    8.4409  -35.0431    0.6193 H   0  0  0  0  0
    7.7621  -35.6237   -1.7152 H   0  0  0  0  0
    6.4804  -35.9013   -0.4877 H   0  0  0  0  0
    8.3567  -37.9951   -1.6861 H   0  0  0  0  0
    6.5988  -37.8157   -2.0088 H   0  0  0  0  0
    8.2000  -38.3720    0.8770 N   0  0  0  0  0
    8.7830  -39.3840    1.5490 C   0  0  0  0  0
    9.4950  -39.1460    2.5420 O   0  0  0  0  0
    8.5570  -40.8410    1.1260 C   0  0  0  0  0
    9.0030  -41.2190    0.0390 O   0  0  0  0  0
    7.7510  -41.8170    2.0150 C   0  0  0  0  0
    7.0980  -42.9360    1.2220 C   0  0  0  0  0
    6.3130  -42.2040    0.2750 O   0  0  0  0  0
    5.4490  -42.8090   -0.5010 C   0  0  0  0  0
    5.3030  -44.0240   -0.4610 O   0  0  0  0  0
    4.7200  -41.9230   -1.4770 C   0  0  0  0  0
    3.4010  -42.4600   -1.9570 C   0  0  0  0  0
    2.8310  -41.5560   -3.0580 C   0  0  0  0  0
    2.1900  -40.2620   -2.5340 C   0  0  0  0  0
    1.3740  -40.4380   -1.2610 C   0  0  0  0  0
    1.1280  -39.0910   -0.6270 C   0  0  0  0  0
    2.3130  -38.6720    0.2170 C   0  0  0  0  0
    2.0550  -37.2730    0.7520 C   0  0  0  0  0
    3.2960  -36.7250    1.4300 C   0  0  0  0  0
    3.6950  -37.5120    2.6810 C   0  0  0  0  0
    4.9390  -36.9370    3.3450 C   0  0  0  0  0
    6.0730  -37.3520    2.5180 O   0  0  0  0  0
    7.0910  -36.5260    2.2580 C   0  0  0  0  0
    7.1310  -35.3720    2.6740 O   0  0  0  0  0
    8.2580  -37.0160    1.4190 C   0  0  0  0  0
    8.4830  -36.0780    0.2490 C   0  0  0  0  0
    7.4650  -36.2330   -0.8490 C   0  0  0  0  0
    7.3910  -37.6910   -1.2560 C   0  0  0  0  0
    7.0810  -38.5700   -0.0560 C   0  0  0  0  0
    6.5810  -41.1270    2.7740 C   0  0  0  0  0
    8.6630  -42.4620    3.0960 C   0  0  0  0  0
    6.1331  -38.2633    0.4102 H   0  0  0  0  0
    7.0158  -39.6253   -0.3594 H   0  0  0  0  0
    6.9751  -40.2965    3.3781 H   0  0  0  0  0
    6.0893  -41.8582    3.4324 H   0  0  0  0  0
    5.8516  -40.7384    2.0481 H   0  0  0  0  0
    9.1489  -41.6706    3.6855 H   0  0  0  0  0
    9.4313  -43.0790    2.6070 H   0  0  0  0  0
    8.0543  -43.0928    3.7605 H   0  0  0  0  0
 38  1  1  0  0  0
 38  2  1  0  0  0
 42  3  1  0  0  0
 42  4  1  0  0  0
 43  5  1  0  0  0
 43  6  1  0  0  0
 44  7  1  0  0  0
 44  8  1  0  0  0
 45  9  1  0  0  0
 45 10  1  0  0  0
 46 11  1  0  0  0
 46 12  1  0  0  0
 47 13  1  0  0  0
 47 14  1  0  0  0
 48 15  1  0  0  0
 48 16  1  0  0  0
 49 17  1  0  0  0
 49 18  1  0  0  0
 50 19  1  0  0  0
 50 20  1  0  0  0
 51 21  1  0  0  0
 51 22  1  0  0  0
 52 23  1  0  0  0
 52 24  1  0  0  0
 56 25  1  0  0  0
 57 26  1  0  0  0
 57 27  1  0  0  0
 58 28  1  0  0  0
 58 29  1  0  0  0
 59 30  1  0  0  0
 59 31  1  0  0  0
 60 63  1  0  0  0
 32 60  1  0  0  0
 56 32  1  0  0  0
 32 33  1  0  0  0
 33 35  1  0  0  0
 33 34  2  0  0  0
 35 37  1  0  0  0
 35 36  2  0  0  0
 37 62  1  0  0  0
 37 61  1  0  0  0
 37 38  1  0  0  0
 38 39  1  0  0  0
 39 40  1  0  0  0
 40 42  1  0  0  0
 40 41  2  0  0  0
 42 43  1  0  0  0
 43 44  1  0  0  0
 45 44  1  0  0  0
 46 45  1  0  0  0
 47 46  1  0  0  0
 48 47  1  0  0  0
 49 48  1  0  0  0
 50 49  1  0  0  0
 51 50  1  0  0  0
 52 51  1  0  0  0
 53 52  1  0  0  0
 54 53  1  0  0  0
 56 54  1  0  0  0
 54 55  2  0  0  0
 57 56  1  0  0  0
 58 57  1  0  0  0
 58 59  1  0  0  0
 59 60  1  0  0  0
 60 64  1  0  0  0
 61 65  1  0  0  0
 61 66  1  0  0  0
 61 67  1  0  0  0
 62 68  1  0  0  0
 62 69  1  0  0  0
 62 70  1  0  0  0
M  END
$$$$
