### 
### Created by X-TOOL on Tue Oct 25 01:24:40 2005
### 

@<TRIPOS>MOLECULE
1fki_ligand
   70    71     1     0     0
SMALL
GAST_HUCK


@<TRIPOS>ATOM
      1 H381        6.4655  -43.5661    1.8646 H         1 SUB1        0.060
      2 H382        7.8498  -43.5626    0.7198 H         1 SUB1        0.060
      3 H421        5.3678  -41.7749   -2.3536 H         1 SUB1        0.052
      4 H422        4.5370  -40.9546   -0.9884 H         1 SUB1        0.052
      5 H431        2.6948  -42.4960   -1.1144 H         1 SUB1        0.029
      6 H432        3.5455  -43.4741   -2.3579 H         1 SUB1        0.029
      7 H441        2.0659  -42.1224   -3.6092 H         1 SUB1        0.027
      8 H442        3.6494  -41.2846   -3.7411 H         1 SUB1        0.027
      9 H451        1.5265  -39.8649   -3.3163 H         1 SUB1        0.026
     10 H452        2.9925  -39.5375   -2.3313 H         1 SUB1        0.026
     11 H461        1.9265  -41.0782   -0.5576 H         1 SUB1        0.026
     12 H462        0.4105  -40.9087   -1.5059 H         1 SUB1        0.026
     13 H471        0.2336  -39.1500    0.0106 H         1 SUB1        0.026
     14 H472        0.9659  -38.3439   -1.4179 H         1 SUB1        0.026
     15 H481        3.2248  -38.6714   -0.3983 H         1 SUB1        0.026
     16 H482        2.4371  -39.3727    1.0558 H         1 SUB1        0.026
     17 H491        1.2315  -37.3104    1.4803 H         1 SUB1        0.026
     18 H492        1.7770  -36.6122   -0.0823 H         1 SUB1        0.026
     19 H501        3.1046  -35.6812    1.7196 H         1 SUB1        0.027
     20 H502        4.1302  -36.7598    0.7139 H         1 SUB1        0.027
     21 H511        3.8952  -38.5552    2.3953 H         1 SUB1        0.029
     22 H512        2.8629  -37.4819    3.3998 H         1 SUB1        0.029
     23 H521        5.0452  -37.3350    4.3649 H         1 SUB1        0.061
     24 H522        4.8774  -35.8394    3.3843 H         1 SUB1        0.061
     25 H561        9.1425  -36.9745    2.0716 H         1 SUB1        0.082
     26 H571        9.4803  -36.2772   -0.1702 H         1 SUB1        0.031
     27 H572        8.4409  -35.0431    0.6193 H         1 SUB1        0.031
     28 H581        7.7621  -35.6237   -1.7152 H         1 SUB1        0.027
     29 H582        6.4804  -35.9013   -0.4877 H         1 SUB1        0.027
     30 H591        8.3567  -37.9951   -1.6861 H         1 SUB1        0.029
     31 H592        6.5988  -37.8157   -2.0088 H         1 SUB1        0.029
     32 N1          8.2000  -38.3720    0.8770 N.am      1 SUB1       -0.240
     33 C2          8.7830  -39.3840    1.5490 C.2       1 SUB1        0.273
     34 O2          9.4950  -39.1460    2.5420 O.2       1 SUB1       -0.361
     35 C3          8.5570  -40.8410    1.1260 C.2       1 SUB1        0.242
     36 O3          9.0030  -41.2190    0.0390 O.2       1 SUB1       -0.291
     37 C4          7.7510  -41.8170    2.0150 C.3       1 SUB1        0.071
     38 C5          7.0980  -42.9360    1.2220 C.3       1 SUB1        0.087
     39 O6          6.3130  -42.2040    0.2750 O.3       1 SUB1       -0.278
     40 C7          5.4490  -42.8090   -0.5010 C.2       1 SUB1        0.234
     41 O7          5.3030  -44.0240   -0.4610 O.2       1 SUB1       -0.370
     42 C8          4.7200  -41.9230   -1.4770 C.3       1 SUB1        0.049
     43 C9          3.4010  -42.4600   -1.9570 C.3       1 SUB1       -0.035
     44 C10         2.8310  -41.5560   -3.0580 C.3       1 SUB1       -0.051
     45 C11         2.1900  -40.2620   -2.5340 C.3       1 SUB1       -0.053
     46 C12         1.3740  -40.4380   -1.2610 C.3       1 SUB1       -0.053
     47 C13         1.1280  -39.0910   -0.6270 C.3       1 SUB1       -0.053
     48 C14         2.3130  -38.6720    0.2170 C.3       1 SUB1       -0.053
     49 C15         2.0550  -37.2730    0.7520 C.3       1 SUB1       -0.053
     50 C16         3.2960  -36.7250    1.4300 C.3       1 SUB1       -0.051
     51 C17         3.6950  -37.5120    2.6810 C.3       1 SUB1       -0.025
     52 C18         4.9390  -36.9370    3.3450 C.3       1 SUB1        0.077
     53 O19         6.0730  -37.3520    2.5180 O.3       1 SUB1       -0.275
     54 C20         7.0910  -36.5260    2.2580 C.2       1 SUB1        0.260
     55 O20         7.1310  -35.3720    2.6740 O.2       1 SUB1       -0.368
     56 C21         8.2580  -37.0160    1.4190 C.3       1 SUB1        0.146
     57 C22         8.4830  -36.0780    0.2490 C.3       1 SUB1       -0.011
     58 C23         7.4650  -36.2330   -0.8490 C.3       1 SUB1       -0.047
     59 C24         7.3910  -37.6910   -1.2560 C.3       1 SUB1       -0.032
     60 C25         7.0810  -38.5700   -0.0560 C.3       1 SUB1        0.038
     61 C26         6.5810  -41.1270    2.7740 C.3       1 SUB1       -0.052
     62 C27         8.6630  -42.4620    3.0960 C.3       1 SUB1       -0.052
     63 H601        6.1331  -38.2633    0.4102 H         1 SUB1        0.053
     64 H602        7.0158  -39.6253   -0.3594 H         1 SUB1        0.053
     65 H611        6.9751  -40.2965    3.3781 H         1 SUB1        0.022
     66 H612        6.0893  -41.8582    3.4324 H         1 SUB1        0.022
     67 H613        5.8516  -40.7384    2.0481 H         1 SUB1        0.022
     68 H621        9.1489  -41.6706    3.6855 H         1 SUB1        0.022
     69 H622        9.4313  -43.0790    2.6070 H         1 SUB1        0.022
     70 H623        8.0543  -43.0928    3.7605 H         1 SUB1        0.022
@<TRIPOS>BOND
     1   38    1 1  
     2   38    2 1  
     3   42    3 1  
     4   42    4 1  
     5   43    5 1  
     6   43    6 1  
     7   44    7 1  
     8   44    8 1  
     9   45    9 1  
    10   45   10 1  
    11   46   11 1  
    12   46   12 1  
    13   47   13 1  
    14   47   14 1  
    15   48   15 1  
    16   48   16 1  
    17   49   17 1  
    18   49   18 1  
    19   50   19 1  
    20   50   20 1  
    21   51   21 1  
    22   51   22 1  
    23   52   23 1  
    24   52   24 1  
    25   56   25 1  
    26   57   26 1  
    27   57   27 1  
    28   58   28 1  
    29   58   29 1  
    30   59   30 1  
    31   59   31 1  
    32   60   63 1  
    33   32   60 1  
    34   56   32 1  
    35   32   33 am 
    36   33   35 1  
    37   33   34 2  
    38   35   37 1  
    39   35   36 2  
    40   37   62 1  
    41   37   61 1  
    42   37   38 1  
    43   38   39 1  
    44   39   40 1  
    45   40   42 1  
    46   40   41 2  
    47   42   43 1  
    48   43   44 1  
    49   45   44 1  
    50   46   45 1  
    51   47   46 1  
    52   48   47 1  
    53   49   48 1  
    54   50   49 1  
    55   51   50 1  
    56   52   51 1  
    57   53   52 1  
    58   54   53 1  
    59   56   54 1  
    60   54   55 2  
    61   57   56 1  
    62   58   57 1  
    63   58   59 1  
    64   59   60 1  
    65   60   64 1  
    66   61   65 1  
    67   61   66 1  
    68   61   67 1  
    69   62   68 1  
    70   62   69 1  
    71   62   70 1  
@<TRIPOS>SUBSTRUCTURE
     1 SUB1        1 GROUP

