### 
### Created by X-TOOL on Mon Oct 24 22:39:49 2005
### 

@<TRIPOS>MOLECULE
1qbs_ligand
   80    84     1     0     0
SMALL
GAST_HUCK


@<TRIPOS>ATOM
      1 C1         -8.8240   15.2890   27.7960 C.2       1 SUB1        0.267
      2 C3         -8.7650   17.6120   26.8940 C.3       1 SUB1        0.085
      3 C4        -10.1510   18.1420   27.1200 C.3       1 SUB1        0.108
      4 C5        -10.6110   17.8660   28.5290 C.3       1 SUB1        0.108
      5 C6        -10.8730   16.3920   28.7780 C.3       1 SUB1        0.085
      6 C20        -7.8950   15.6060   25.6580 C.3       1 SUB1        0.065
      7 C21        -8.3940   16.0040   24.3140 C.ar      1 SUB1       -0.028
      8 C22        -9.7620   16.0350   23.9810 C.ar      1 SUB1       -0.065
      9 C23       -10.1750   16.3420   22.6670 C.ar      1 SUB1       -0.065
     10 C24        -9.1890   16.6000   21.7020 C.ar      1 SUB1       -0.024
     11 C25        -7.8260   16.5690   22.0380 C.ar      1 SUB1       -0.065
     12 C26        -7.4240   16.2810   23.3540 C.ar      1 SUB1       -0.065
     13 C27        -9.5830   16.8780   20.2990 C.3       1 SUB1        0.075
     14 C30        -7.6750   18.1900   27.7820 C.3       1 SUB1        0.007
     15 C31        -6.3090   18.0780   27.1330 C.ar      1 SUB1       -0.041
     16 C32        -5.3710   17.1390   27.6170 C.ar      1 SUB1       -0.060
     17 C33        -4.1150   17.0170   27.0020 C.ar      1 SUB1       -0.069
     18 C34        -3.7920   17.8380   25.9060 C.ar      1 SUB1       -0.069
     19 C35        -4.7220   18.7820   25.4150 C.ar      1 SUB1       -0.069
     20 C36        -5.9870   18.8970   26.0350 C.ar      1 SUB1       -0.060
     21 C60       -11.9890   15.7360   27.9350 C.3       1 SUB1        0.007
     22 C61       -12.5340   14.4820   28.5860 C.ar      1 SUB1       -0.041
     23 C62       -13.2610   14.5870   29.8040 C.ar      1 SUB1       -0.060
     24 C63       -13.6010   13.4140   30.5130 C.ar      1 SUB1       -0.069
     25 C64       -13.2390   12.1520   29.9960 C.ar      1 SUB1       -0.069
     26 C65       -12.5480   12.0500   28.7750 C.ar      1 SUB1       -0.069
     27 C66       -12.1950   13.2160   28.0670 C.ar      1 SUB1       -0.060
     28 C70        -9.5160   14.6730   30.0030 C.3       1 SUB1        0.065
     29 C71        -9.6180   15.2850   31.3760 C.ar      1 SUB1       -0.028
     30 C72       -10.2970   14.5400   32.3750 C.ar      1 SUB1       -0.065
     31 C73       -10.3520   15.0360   33.6820 C.ar      1 SUB1       -0.065
     32 C74        -9.7350   16.2670   33.9880 C.ar      1 SUB1       -0.024
     33 C75        -9.0700   17.0220   32.9890 C.ar      1 SUB1       -0.065
     34 C76        -9.0140   16.5230   31.6810 C.ar      1 SUB1       -0.065
     35 C77        -9.7360   16.7740   35.4100 C.3       1 SUB1        0.075
     36 N2         -8.6000   16.1560   26.8220 N.am      1 SUB1       -0.241
     37 N7         -9.6940   15.5050   28.8070 N.am      1 SUB1       -0.241
     38 O1         -8.1740   14.2590   27.7580 O.2       1 SUB1       -0.400
     39 O4        -10.0250   19.4970   26.8340 O.3       1 SUB1       -0.387
     40 O5        -11.8020   18.5230   28.8520 O.3       1 SUB1       -0.387
     41 O27        -9.0170   18.1250   19.9200 O.3       1 SUB1       -0.384
     42 O77       -11.0720   16.7380   35.8800 O.3       1 SUB1       -0.384
     43 H21        -8.5220   17.9680   25.8820 H         1 SUB1        0.061
     44 H31       -10.8616   17.6744   26.4226 H         1 SUB1        0.064
     45 H41        -9.8185   18.2088   29.2105 H         1 SUB1        0.064
     46 H51       -11.2576   16.3754   29.8084 H         1 SUB1        0.061
     47 H61        -7.9542   14.5095   25.7222 H         1 SUB1        0.067
     48 H62        -6.8435   15.9212   25.7279 H         1 SUB1        0.067
     49 H81       -10.5047   15.8210   24.7411 H         1 SUB1        0.054
     50 H91       -11.2273   16.3777   22.4094 H         1 SUB1        0.054
     51 H111       -7.0792   16.7684   21.2780 H         1 SUB1        0.054
     52 H121       -6.3727   16.2746   23.6180 H         1 SUB1        0.054
     53 H131      -10.6792   16.9276   20.2225 H         1 SUB1        0.071
     54 H132       -9.2051   16.0817   19.6409 H         1 SUB1        0.071
     55 H141       -7.6632   17.6418   28.7356 H         1 SUB1        0.045
     56 H142       -7.8942   19.2511   27.9717 H         1 SUB1        0.045
     57 H161       -5.6216   16.5116   28.4647 H         1 SUB1        0.056
     58 H171       -3.3969   16.2932   27.3700 H         1 SUB1        0.060
     59 H181       -2.8206   17.7456   25.4338 H         1 SUB1        0.056
     60 H191       -4.4675   19.4122   24.5705 H         1 SUB1        0.060
     61 H201       -6.7089   19.6159   25.6647 H         1 SUB1        0.056
     62 H211      -11.5801   15.4739   26.9481 H         1 SUB1        0.045
     63 H212      -12.8105   16.4571   27.8118 H         1 SUB1        0.045
     64 H231      -13.5517   15.5594   30.1849 H         1 SUB1        0.056
     65 H241      -14.1386   13.4829   31.4518 H         1 SUB1        0.060
     66 H251      -13.4957   11.2530   30.5447 H         1 SUB1        0.056
     67 H261      -12.2873   11.0752   28.3791 H         1 SUB1        0.060
     68 H271      -11.6638   13.1396   27.1251 H         1 SUB1        0.056
     69 H281       -8.5141   14.2248   29.9302 H         1 SUB1        0.067
     70 H282      -10.2769   13.8802   29.9529 H         1 SUB1        0.067
     71 H301      -10.7685   13.5957   32.1277 H         1 SUB1        0.054
     72 H311      -10.8661   14.4772   34.4556 H         1 SUB1        0.054
     73 H331       -8.6109   17.9729   33.2340 H         1 SUB1        0.054
     74 H341       -8.5080   17.0866   30.9055 H         1 SUB1        0.054
     75 H351       -9.3562   17.8059   35.4400 H         1 SUB1        0.071
     76 H352       -9.1010   16.1312   36.0373 H         1 SUB1        0.071
     77 H391      -10.8656   19.9237   26.9512 H         1 SUB1        0.210
     78 H401      -11.6782   19.4610   28.7663 H         1 SUB1        0.210
     79 H411       -9.2585   18.3214   19.0224 H         1 SUB1        0.212
     80 H421      -11.1000   17.0532   36.7758 H         1 SUB1        0.212
@<TRIPOS>BOND
     1    1   38 2  
     2    1   37 am 
     3    1   36 am 
     4   36    6 1  
     5   36    2 1  
     6    2   14 1  
     7    2    3 1  
     8    3   39 1  
     9    3    4 1  
    10    4   40 1  
    11    4    5 1  
    12    5   37 1  
    13    5   21 1  
    14   21   22 1  
    15   22   27 ar 
    16   22   23 ar 
    17   23   24 ar 
    18   24   25 ar 
    19   25   26 ar 
    20   26   27 ar 
    21   37   28 1  
    22   28   29 1  
    23   29   34 ar 
    24   29   30 ar 
    25   30   31 ar 
    26   31   32 ar 
    27   32   35 1  
    28   32   33 ar 
    29   33   34 ar 
    30   35   42 1  
    31   14   15 1  
    32   15   20 ar 
    33   15   16 ar 
    34   16   17 ar 
    35   17   18 ar 
    36   18   19 ar 
    37   19   20 ar 
    38    6    7 1  
    39    7   12 ar 
    40    7    8 ar 
    41    8    9 ar 
    42    9   10 ar 
    43   10   13 1  
    44   10   11 ar 
    45   11   12 ar 
    46   13   41 1  
    47    2   43 1  
    48    3   44 1  
    49    4   45 1  
    50    5   46 1  
    51    6   47 1  
    52    6   48 1  
    53    8   49 1  
    54    9   50 1  
    55   11   51 1  
    56   12   52 1  
    57   13   53 1  
    58   13   54 1  
    59   14   55 1  
    60   14   56 1  
    61   16   57 1  
    62   17   58 1  
    63   18   59 1  
    64   19   60 1  
    65   20   61 1  
    66   21   62 1  
    67   21   63 1  
    68   23   64 1  
    69   24   65 1  
    70   25   66 1  
    71   26   67 1  
    72   27   68 1  
    73   28   69 1  
    74   28   70 1  
    75   30   71 1  
    76   31   72 1  
    77   33   73 1  
    78   34   74 1  
    79   35   75 1  
    80   35   76 1  
    81   39   77 1  
    82   40   78 1  
    83   41   79 1  
    84   42   80 1  
@<TRIPOS>SUBSTRUCTURE
     1 SUB1        1 GROUP

