### 
### Created by X-TOOL on Mon Oct 24 22:39:24 2005
### 

@<TRIPOS>MOLECULE
1apv_ligand
   80    79     1     0     0
SMALL
GAST_HUCK


@<TRIPOS>ATOM
      1 CA         16.0190    4.5530   17.9340 C.3       1 SUB1        0.040
      2 CB         14.7990    3.9160   18.5820 C.3       1 SUB1       -0.030
      3 CG1        14.3210    4.9180   19.6410 C.3       1 SUB1       -0.061
      4 CG2        13.7190    3.6180   17.5740 C.3       1 SUB1       -0.061
      5 C          17.1300    4.8030   18.9660 C.2       1 SUB1        0.178
      6 O          17.1600    4.1620   20.0510 O.2       1 SUB1       -0.397
      7 N          18.0000    5.7030   18.5940 N.am      1 SUB1       -0.265
      8 CA         19.1740    6.0020   19.4660 C.3       1 SUB1        0.133
      9 C          19.0780    7.3870   20.1050 C.2       1 SUB1        0.204
     10 O          18.2360    8.1860   19.6660 O.2       1 SUB1       -0.394
     11 CB         20.4050    5.8710   18.5450 C.3       1 SUB1       -0.006
     12 CG1        20.5140    4.4980   17.8720 C.3       1 SUB1       -0.058
     13 CG2        20.3940    6.9660   17.4880 C.3       1 SUB1       -0.058
     14 N          19.9330    7.5290   21.0860 N.am      1 SUB1       -0.264
     15 CA         19.9710    8.8400   21.8490 C.3       1 SUB1        0.133
     16 C          21.4750    9.1630   22.0480 C.2       1 SUB1        0.202
     17 O          22.0280    8.5270   22.9380 O.2       1 SUB1       -0.394
     18 CB         19.2190    8.7390   23.1690 C.3       1 SUB1       -0.006
     19 CG1        19.1830   10.1550   23.8360 C.3       1 SUB1       -0.058
     20 CG2        17.8090    8.2400   23.1190 C.3       1 SUB1       -0.058
     21 N          22.0060   10.0660   21.2120 N.am      1 SUB1       -0.277
     22 CA         23.4390   10.3800   21.3090 C.3       1 SUB1        0.101
     23 CB         24.0620    9.9190   19.9650 C.3       1 SUB1       -0.023
     24 CG         23.7960    8.4950   19.5250 C.3       1 SUB1       -0.045
     25 CD1        24.3870    8.2280   18.1500 C.3       1 SUB1       -0.063
     26 CD2        24.4460    7.4540   20.4830 C.3       1 SUB1       -0.063
     27 CH         23.6380   11.8880   21.5110 C.3       1 SUB1        0.261
     28 OH         22.8910   12.6110   20.4760 O.3       1 SUB1       -0.359
     29 CM         23.2280   12.4820   22.8930 C.3       1 SUB1        0.377
     30 C          24.3170   12.1080   23.9700 C.2       1 SUB1        0.271
     31 O          24.3070   11.0000   24.5350 O.2       1 SUB1       -0.338
     32 OH1        25.0190   12.1230   21.4170 O.3       1 SUB1       -0.359
     33 F1         22.0750   11.9820   23.2420 F         1 SUB1       -0.195
     34 F2         23.1050   13.8100   22.8380 F         1 SUB1       -0.195
     35 N          25.1930   13.0570   24.1750 N.am      1 SUB1       -0.284
     36 CH3        26.3230   12.9170   25.1300 C.3       1 SUB1        0.020
     37 H71        17.8802    6.1898   17.7287 H         1 SUB1        0.188
     38 H81        19.2349    5.2552   20.2713 H         1 SUB1        0.080
     39 H111       21.3005    6.0066   19.1693 H         1 SUB1        0.034
     40 H121       20.6022    3.7180   18.6425 H         1 SUB1        0.023
     41 H122       21.4033    4.4763   17.2249 H         1 SUB1        0.023
     42 H123       19.6148    4.3144   17.2656 H         1 SUB1        0.023
     43 H131       19.4859    6.8739   16.8741 H         1 SUB1        0.023
     44 H132       21.2819    6.8654   16.8466 H         1 SUB1        0.023
     45 H133       20.4062    7.9501   17.9793 H         1 SUB1        0.023
     46 H141       20.5531    6.7832   21.3294 H         1 SUB1        0.188
     47 H151       19.5036    9.6321   21.2456 H         1 SUB1        0.080
     48 H181       19.7878    8.0520   23.8128 H         1 SUB1        0.034
     49 H191       20.2110   10.4966   24.0268 H         1 SUB1        0.023
     50 H192       18.6330   10.0985   24.7869 H         1 SUB1        0.023
     51 H193       18.6797   10.8647   23.1630 H         1 SUB1        0.023
     52 H201       17.2030    8.9152   22.4970 H         1 SUB1        0.023
     53 H202       17.3947    8.2090   24.1375 H         1 SUB1        0.023
     54 H203       17.7929    7.2291   22.6857 H         1 SUB1        0.023
     55 H351       25.0985   13.9135   23.6675 H         1 SUB1        0.185
     56 H11        15.7258    5.5125   17.4830 H         1 SUB1        0.051
     57 H12        16.4012    3.8814   17.1511 H         1 SUB1        0.051
     58 H21        15.0899    2.9735   19.0690 H         1 SUB1        0.032
     59 H31        13.4336    4.5161   20.1519 H         1 SUB1        0.023
     60 H32        14.0641    5.8707   19.1549 H         1 SUB1        0.023
     61 H33        15.1225    5.0855   20.3755 H         1 SUB1        0.023
     62 H41        14.0974    2.8983   16.8332 H         1 SUB1        0.023
     63 H42        13.4257    4.5480   17.0650 H         1 SUB1        0.023
     64 H43        12.8456    3.1901   18.0880 H         1 SUB1        0.023
     65 H211       21.4338   10.5212   20.5298 H         1 SUB1        0.186
     66 H221       23.8955    9.8351   22.1484 H         1 SUB1        0.061
     67 H231       25.1521   10.0403   20.0480 H         1 SUB1        0.029
     68 H232       23.6778   10.5845   19.1779 H         1 SUB1        0.029
     69 H241       22.7078    8.3369   19.4969 H         1 SUB1        0.030
     70 H251       24.1788    7.1884   17.8570 H         1 SUB1        0.023
     71 H252       25.4746    8.3894   18.1807 H         1 SUB1        0.023
     72 H253       23.9352    8.9129   17.4174 H         1 SUB1        0.023
     73 H261       24.0548    7.5982   21.5009 H         1 SUB1        0.023
     74 H262       25.5375    7.5907   20.4869 H         1 SUB1        0.023
     75 H263       24.2050    6.4377   20.1381 H         1 SUB1        0.023
     76 H281       23.0426   13.5440   20.5711 H         1 SUB1        0.213
     77 H321       25.3310   11.8351   20.5671 H         1 SUB1        0.213
     78 H361       26.9201   13.8409   25.1295 H         1 SUB1        0.049
     79 H362       26.9568   12.0707   24.8266 H         1 SUB1        0.049
     80 H363       25.9286   12.7359   26.1408 H         1 SUB1        0.049
@<TRIPOS>BOND
     1    8    7 1  
     2    8   11 1  
     3    9    8 1  
     4    9   10 2  
     5   11   13 1  
     6   11   12 1  
     7   15   14 1  
     8   15   18 1  
     9   16   15 1  
    10   16   17 2  
    11   18   20 1  
    12   18   19 1  
    13   14    9 am 
    14   35   36 1  
    15    1    2 1  
    16    5    1 1  
    17    2    3 1  
    18    2    4 1  
    19    5    6 2  
    20    7    5 am 
    21   21   16 am 
    22   22   21 1  
    23   22   23 1  
    24   27   22 1  
    25   23   24 1  
    26   24   25 1  
    27   24   26 1  
    28   27   28 1  
    29   29   27 1  
    30   27   32 1  
    31   30   29 1  
    32   29   33 1  
    33   29   34 1  
    34   30   31 2  
    35   30   35 am 
    36    7   37 1  
    37    8   38 1  
    38   11   39 1  
    39   12   40 1  
    40   12   41 1  
    41   12   42 1  
    42   13   43 1  
    43   13   44 1  
    44   13   45 1  
    45   14   46 1  
    46   15   47 1  
    47   18   48 1  
    48   19   49 1  
    49   19   50 1  
    50   19   51 1  
    51   20   52 1  
    52   20   53 1  
    53   20   54 1  
    54   35   55 1  
    55    1   56 1  
    56    1   57 1  
    57    2   58 1  
    58    3   59 1  
    59    3   60 1  
    60    3   61 1  
    61    4   62 1  
    62    4   63 1  
    63    4   64 1  
    64   21   65 1  
    65   22   66 1  
    66   23   67 1  
    67   23   68 1  
    68   24   69 1  
    69   25   70 1  
    70   25   71 1  
    71   25   72 1  
    72   26   73 1  
    73   26   74 1  
    74   26   75 1  
    75   28   76 1  
    76   32   77 1  
    77   36   78 1  
    78   36   79 1  
    79   36   80 1  
@<TRIPOS>SUBSTRUCTURE
     1 SUB1        1 GROUP

