1apv_ligand
  -I-interpret- 

 80 79  0  0  0  0  0  0  0  0999 V2000
   16.0190    4.5530   17.9340 C   0  0  0  0  0
   14.7990    3.9160   18.5820 C   0  0  0  0  0
   14.3210    4.9180   19.6410 C   0  0  0  0  0
   13.7190    3.6180   17.5740 C   0  0  0  0  0
   17.1300    4.8030   18.9660 C   0  0  0  0  0
   17.1600    4.1620   20.0510 O   0  0  0  0  0
   18.0000    5.7030   18.5940 N   0  0  0  0  0
   19.1740    6.0020   19.4660 C   0  0  0  0  0
   19.0780    7.3870   20.1050 C   0  0  0  0  0
   18.2360    8.1860   19.6660 O   0  0  0  0  0
   20.4050    5.8710   18.5450 C   0  0  0  0  0
   20.5140    4.4980   17.8720 C   0  0  0  0  0
   20.3940    6.9660   17.4880 C   0  0  0  0  0
   19.9330    7.5290   21.0860 N   0  0  0  0  0
   19.9710    8.8400   21.8490 C   0  0  0  0  0
   21.4750    9.1630   22.0480 C   0  0  0  0  0
   22.0280    8.5270   22.9380 O   0  0  0  0  0
   19.2190    8.7390   23.1690 C   0  0  0  0  0
   19.1830   10.1550   23.8360 C   0  0  0  0  0
   17.8090    8.2400   23.1190 C   0  0  0  0  0
   22.0060   10.0660   21.2120 N   0  0  0  0  0
   23.4390   10.3800   21.3090 C   0  0  0  0  0
   24.0620    9.9190   19.9650 C   0  0  0  0  0
   23.7960    8.4950   19.5250 C   0  0  0  0  0
   24.3870    8.2280   18.1500 C   0  0  0  0  0
   24.4460    7.4540   20.4830 C   0  0  0  0  0
   23.6380   11.8880   21.5110 C   0  0  0  0  0
   22.8910   12.6110   20.4760 O   0  0  0  0  0
   23.2280   12.4820   22.8930 C   0  0  0  0  0
   24.3170   12.1080   23.9700 C   0  0  0  0  0
   24.3070   11.0000   24.5350 O   0  0  0  0  0
   25.0190   12.1230   21.4170 O   0  0  0  0  0
   22.0750   11.9820   23.2420 F   0  0  0  0  0
   23.1050   13.8100   22.8380 F   0  0  0  0  0
   25.1930   13.0570   24.1750 N   0  0  0  0  0
   26.3230   12.9170   25.1300 C   0  0  0  0  0
   17.8802    6.1898   17.7287 H   0  0  0  0  0
   19.2349    5.2552   20.2713 H   0  0  0  0  0
   21.3005    6.0066   19.1693 H   0  0  0  0  0
   20.6022    3.7180   18.6425 H   0  0  0  0  0
   21.4033    4.4763   17.2249 H   0  0  0  0  0
   19.6148    4.3144   17.2656 H   0  0  0  0  0
   19.4859    6.8739   16.8741 H   0  0  0  0  0
   21.2819    6.8654   16.8466 H   0  0  0  0  0
   20.4062    7.9501   17.9793 H   0  0  0  0  0
   20.5531    6.7832   21.3294 H   0  0  0  0  0
   19.5036    9.6321   21.2456 H   0  0  0  0  0
   19.7878    8.0520   23.8128 H   0  0  0  0  0
   20.2110   10.4966   24.0268 H   0  0  0  0  0
   18.6330   10.0985   24.7869 H   0  0  0  0  0
   18.6797   10.8647   23.1630 H   0  0  0  0  0
   17.2030    8.9152   22.4970 H   0  0  0  0  0
   17.3947    8.2090   24.1375 H   0  0  0  0  0
   17.7929    7.2291   22.6857 H   0  0  0  0  0
   25.0985   13.9135   23.6675 H   0  0  0  0  0
   15.7258    5.5125   17.4830 H   0  0  0  0  0
   16.4012    3.8814   17.1511 H   0  0  0  0  0
   15.0899    2.9735   19.0690 H   0  0  0  0  0
   13.4336    4.5161   20.1519 H   0  0  0  0  0
   14.0641    5.8707   19.1549 H   0  0  0  0  0
   15.1225    5.0855   20.3755 H   0  0  0  0  0
   14.0974    2.8983   16.8332 H   0  0  0  0  0
   13.4257    4.5480   17.0650 H   0  0  0  0  0
   12.8456    3.1901   18.0880 H   0  0  0  0  0
   21.4338   10.5212   20.5298 H   0  0  0  0  0
   23.8955    9.8351   22.1484 H   0  0  0  0  0
   25.1521   10.0403   20.0480 H   0  0  0  0  0
   23.6778   10.5845   19.1779 H   0  0  0  0  0
   22.7078    8.3369   19.4969 H   0  0  0  0  0
   24.1788    7.1884   17.8570 H   0  0  0  0  0
   25.4746    8.3894   18.1807 H   0  0  0  0  0
   23.9352    8.9129   17.4174 H   0  0  0  0  0
   24.0548    7.5982   21.5009 H   0  0  0  0  0
   25.5375    7.5907   20.4869 H   0  0  0  0  0
   24.2050    6.4377   20.1381 H   0  0  0  0  0
   23.0426   13.5440   20.5711 H   0  0  0  0  0
   25.3310   11.8351   20.5671 H   0  0  0  0  0
   26.9201   13.8409   25.1295 H   0  0  0  0  0
   26.9568   12.0707   24.8266 H   0  0  0  0  0
   25.9286   12.7359   26.1408 H   0  0  0  0  0
  8  7  1  0  0  0
  8 11  1  0  0  0
  9  8  1  0  0  0
  9 10  2  0  0  0
 11 13  1  0  0  0
 11 12  1  0  0  0
 15 14  1  0  0  0
 15 18  1  0  0  0
 16 15  1  0  0  0
 16 17  2  0  0  0
 18 20  1  0  0  0
 18 19  1  0  0  0
 14  9  1  0  0  0
 35 36  1  0  0  0
  1  2  1  0  0  0
  5  1  1  0  0  0
  2  3  1  0  0  0
  2  4  1  0  0  0
  5  6  2  0  0  0
  7  5  1  0  0  0
 21 16  1  0  0  0
 22 21  1  0  0  0
 22 23  1  0  0  0
 27 22  1  0  0  0
 23 24  1  0  0  0
 24 25  1  0  0  0
 24 26  1  0  0  0
 27 28  1  0  0  0
 29 27  1  0  0  0
 27 32  1  0  0  0
 30 29  1  0  0  0
 29 33  1  0  0  0
 29 34  1  0  0  0
 30 31  2  0  0  0
 30 35  1  0  0  0
  7 37  1  0  0  0
  8 38  1  0  0  0
 11 39  1  0  0  0
 12 40  1  0  0  0
 12 41  1  0  0  0
 12 42  1  0  0  0
 13 43  1  0  0  0
 13 44  1  0  0  0
 13 45  1  0  0  0
 14 46  1  0  0  0
 15 47  1  0  0  0
 18 48  1  0  0  0
 19 49  1  0  0  0
 19 50  1  0  0  0
 19 51  1  0  0  0
 20 52  1  0  0  0
 20 53  1  0  0  0
 20 54  1  0  0  0
 35 55  1  0  0  0
  1 56  1  0  0  0
  1 57  1  0  0  0
  2 58  1  0  0  0
  3 59  1  0  0  0
  3 60  1  0  0  0
  3 61  1  0  0  0
  4 62  1  0  0  0
  4 63  1  0  0  0
  4 64  1  0  0  0
 21 65  1  0  0  0
 22 66  1  0  0  0
 23 67  1  0  0  0
 23 68  1  0  0  0
 24 69  1  0  0  0
 25 70  1  0  0  0
 25 71  1  0  0  0
 25 72  1  0  0  0
 26 73  1  0  0  0
 26 74  1  0  0  0
 26 75  1  0  0  0
 28 76  1  0  0  0
 32 77  1  0  0  0
 36 78  1  0  0  0
 36 79  1  0  0  0
 36 80  1  0  0  0
M  END
$$$$
