### 
### Created by X-TOOL on Mon Oct 24 22:40:17 2005
### 

@<TRIPOS>MOLECULE
1swg_ligand
   31    32     1     0     0
SMALL
GAST_HUCK


@<TRIPOS>ATOM
      1 C11        13.8230   15.4720   18.2480 C.2       1 SUB1        0.028
      2 O11        14.0450   15.9210   17.0920 O.co2     1 SUB1       -0.567
      3 O12        14.7540   15.0090   18.9720 O.co2     1 SUB1       -0.567
      4 C10        12.4110   15.4940   18.7050 C.3       1 SUB1       -0.014
      5 C9         11.5780   16.5940   18.0180 C.3       1 SUB1       -0.041
      6 C8         11.8760   17.9300   18.6780 C.3       1 SUB1       -0.049
      7 C7         11.1330   19.1590   18.1180 C.3       1 SUB1       -0.039
      8 C2         11.4950   20.4790   18.7970 C.3       1 SUB1        0.030
      9 S1         11.0380   20.5580   20.5830 S.3       1 SUB1       -0.153
     10 C6         11.4720   22.3320   20.5860 C.3       1 SUB1        0.019
     11 C5         10.9390   22.9040   19.2940 C.3       1 SUB1        0.075
     12 N1          9.5410   23.3110   19.3310 N.am      1 SUB1       -0.267
     13 C3          8.7770   22.5910   18.5060 C.2       1 SUB1        0.258
     14 O3          7.5460   22.7020   18.2980 O.2       1 SUB1       -0.401
     15 N2          9.5720   21.7110   17.8520 N.am      1 SUB1       -0.267
     16 C4         10.9550   21.7700   18.2320 C.3       1 SUB1        0.078
     17 H41        12.3957   15.6683   19.7910 H         1 SUB1        0.048
     18 H42        11.9547   14.5179   18.4838 H         1 SUB1        0.048
     19 H51        10.5074   16.3633   18.1207 H         1 SUB1        0.030
     20 H52        11.8418   16.6434   16.9512 H         1 SUB1        0.030
     21 H61        12.9551   18.1183   18.5774 H         1 SUB1        0.027
     22 H62        11.6171   17.8408   19.7434 H         1 SUB1        0.027
     23 H71        10.0526   18.9936   18.2415 H         1 SUB1        0.028
     24 H72        11.3706   19.2464   17.0475 H         1 SUB1        0.028
     25 H81        12.5913   20.5380   18.7284 H         1 SUB1        0.043
     26 H101       12.5638   22.4564   20.6352 H         1 SUB1        0.040
     27 H102       11.0064   22.8360   21.4457 H         1 SUB1        0.040
     28 H111       11.5692   23.7520   18.9879 H         1 SUB1        0.058
     29 H121        9.1921   24.0479   19.9100 H         1 SUB1        0.185
     30 H151        9.2252   21.0744   17.1632 H         1 SUB1        0.185
     31 H161       11.5748   22.0542   17.3688 H         1 SUB1        0.059
@<TRIPOS>BOND
     1    1    4 1  
     2    1    3 2  
     3    1    2 2  
     4    4    5 1  
     5    5    6 1  
     6    6    7 1  
     7    7    8 1  
     8    8   16 1  
     9    8    9 1  
    10    9   10 1  
    11   10   11 1  
    12   11   16 1  
    13   11   12 1  
    14   12   13 am 
    15   13   15 am 
    16   13   14 2  
    17   15   16 1  
    18    4   17 1  
    19    4   18 1  
    20    5   19 1  
    21    5   20 1  
    22    6   21 1  
    23    6   22 1  
    24    7   23 1  
    25    7   24 1  
    26    8   25 1  
    27   10   26 1  
    28   10   27 1  
    29   11   28 1  
    30   12   29 1  
    31   15   30 1  
    32   16   31 1  
@<TRIPOS>SUBSTRUCTURE
     1 SUB1        1 GROUP

