### 
### Created by X-TOOL on Mon Oct 24 21:52:50 2005
### 

@<TRIPOS>MOLECULE
1kzk_ligand
   78    81     1     0     0
SMALL
GAST_HUCK


@<TRIPOS>ATOM
      1 C1         24.5000    2.3990   20.4240 C.ar      1 SUB1        0.095
      2 O2         25.8560    2.4460   20.5620 O.3       1 SUB1       -0.336
      3 C3         23.6870    3.4480   20.9470 C.ar      1 SUB1       -0.036
      4 C4         22.3390    3.4320   20.7260 C.ar      1 SUB1       -0.072
      5 C5         21.7270    2.3540   20.0240 C.ar      1 SUB1       -0.060
      6 C6         22.5330    1.3470   19.4330 C.ar      1 SUB1        0.043
      7 C7         23.9500    1.3580   19.6050 C.ar      1 SUB1        0.004
      8 C8         24.8990    0.3740   18.9300 C.3       1 SUB1       -0.029
      9 C9         21.8480    0.2670   18.6660 C.2       1 SUB1        0.198
     10 O10        22.0690   -0.9900   18.9430 O.2       1 SUB1       -0.389
     11 N11        20.9700    0.6590   17.7570 N.am      1 SUB1       -0.278
     12 C12        20.1730   -0.3620   16.9800 C.3       1 SUB1        0.094
     13 C13        18.6860    0.1940   16.8740 C.3       1 SUB1        0.009
     14 C14        18.1480    0.6370   18.2120 C.ar      1 SUB1       -0.041
     15 C15        18.0940    2.0320   18.5210 C.ar      1 SUB1       -0.060
     16 C16        17.6770    2.4080   19.8380 C.ar      1 SUB1       -0.069
     17 C17        17.3240    1.4600   20.8120 C.ar      1 SUB1       -0.069
     18 C18        17.3750    0.1040   20.4720 C.ar      1 SUB1       -0.069
     19 C19        17.7970   -0.2950   19.2130 C.ar      1 SUB1       -0.060
     20 C20        20.8680   -0.5040   15.6030 C.3       1 SUB1        0.168
     21 O21        20.5210    0.5820   14.7460 O.3       1 SUB1       -0.369
     22 C22        20.3600   -1.7850   14.9420 C.2       1 SUB1        0.213
     23 O23        19.2990   -1.8640   14.2880 O.2       1 SUB1       -0.394
     24 N24        21.1050   -2.9230   15.1300 N.am      1 SUB1       -0.238
     25 C25        22.3900   -2.9470   15.9220 C.3       1 SUB1        0.083
     26 S26        22.7750   -4.7050   16.1440 S.3       1 SUB1       -0.125
     27 C27        21.8980   -5.1370   14.5960 C.3       1 SUB1        0.053
     28 C28        22.7450   -4.7600   13.3790 C.3       1 SUB1       -0.046
     29 C29        21.5620   -6.6380   14.5150 C.3       1 SUB1       -0.046
     30 C30        20.6350   -4.2260   14.6100 C.3       1 SUB1        0.149
     31 C31        19.4740   -4.7460   15.4830 C.2       1 SUB1        0.205
     32 O32        19.3600   -4.5020   16.7210 O.2       1 SUB1       -0.394
     33 N33        18.5680   -5.5610   14.7910 N.am      1 SUB1       -0.275
     34 C34        17.4260   -6.2060   15.4830 C.3       1 SUB1        0.062
     35 C35        16.1360   -5.9810   14.6820 C.ar      1 SUB1       -0.019
     36 C36        15.4800   -4.7310   14.6670 C.ar      1 SUB1       -0.042
     37 C37        14.2670   -4.6240   13.9790 C.ar      1 SUB1       -0.067
     38 C38        13.7360   -5.7470   13.2960 C.ar      1 SUB1       -0.075
     39 C39        14.3650   -6.9590   13.3090 C.ar      1 SUB1       -0.075
     40 C40        15.5770   -7.0730   14.0280 C.ar      1 SUB1       -0.065
     41 C41        16.0130   -3.5750   15.4200 C.3       1 SUB1       -0.034
     42 H21        26.2409    1.6758   20.1606 H         1 SUB1        0.246
     43 H31        24.1364    4.2534   21.5166 H         1 SUB1        0.056
     44 H41        21.7273    4.2499   21.0894 H         1 SUB1        0.054
     45 H51        20.6473    2.3032   19.9415 H         1 SUB1        0.056
     46 H81        25.9336    0.5989   19.2285 H         1 SUB1        0.038
     47 H82        24.8047    0.4641   17.8378 H         1 SUB1        0.038
     48 H83        24.6435   -0.6510   19.2368 H         1 SUB1        0.038
     49 H111       20.8337    1.6344   17.5839 H         1 SUB1        0.185
     50 H121       20.1683   -1.3337   17.4956 H         1 SUB1        0.063
     51 H131       18.0377   -0.6010   16.4769 H         1 SUB1        0.045
     52 H132       18.6767    1.0525   16.1864 H         1 SUB1        0.045
     53 H151       18.3599    2.7799   17.7828 H         1 SUB1        0.056
     54 H161       17.6322    3.4609   20.0921 H         1 SUB1        0.060
     55 H171       17.0190    1.7718   21.8044 H         1 SUB1        0.056
     56 H181       17.0814   -0.6429   21.2007 H         1 SUB1        0.060
     57 H191       17.8593   -1.3541   18.9905 H         1 SUB1        0.056
     58 H201       21.9590   -0.5446   15.7372 H         1 SUB1        0.086
     59 H211       19.5773    0.6121   14.6410 H         1 SUB1        0.213
     60 H251       22.2523   -2.4558   16.8965 H         1 SUB1        0.064
     61 H252       23.1949   -2.4424   15.3675 H         1 SUB1        0.064
     62 H281       22.2038   -5.0261   12.4590 H         1 SUB1        0.024
     63 H282       23.6997   -5.3054   13.4135 H         1 SUB1        0.024
     64 H283       22.9404   -3.6776   13.3894 H         1 SUB1        0.024
     65 H291       21.0378   -6.8459   13.5705 H         1 SUB1        0.024
     66 H292       20.9165   -6.9155   15.3613 H         1 SUB1        0.024
     67 H293       22.4917   -7.2246   14.5552 H         1 SUB1        0.024
     68 H301       20.2646   -4.1104   13.5807 H         1 SUB1        0.082
     69 H331       18.6942   -5.7107   13.8104 H         1 SUB1        0.188
     70 H341       17.3134   -5.7691   16.4862 H         1 SUB1        0.067
     71 H342       17.6162   -7.2857   15.5725 H         1 SUB1        0.067
     72 H371       13.7322   -3.6811   13.9680 H         1 SUB1        0.054
     73 H381       12.8062   -5.6408   12.7490 H         1 SUB1        0.054
     74 H391       13.9469   -7.8096   12.7830 H         1 SUB1        0.054
     75 H401       16.0809   -8.0319   14.0702 H         1 SUB1        0.054
     76 H411       16.9683   -3.8523   15.8896 H         1 SUB1        0.038
     77 H412       15.2935   -3.2812   16.1985 H         1 SUB1        0.038
     78 H413       16.1737   -2.7318   14.7321 H         1 SUB1        0.038
@<TRIPOS>BOND
     1    1    7 ar 
     2    1    3 ar 
     3    1    2 1  
     4    3    4 ar 
     5    4    5 ar 
     6    5    6 ar 
     7    6    9 1  
     8    6    7 ar 
     9    7    8 1  
    10    9   11 am 
    11    9   10 2  
    12   11   12 1  
    13   12   20 1  
    14   12   13 1  
    15   13   14 1  
    16   14   19 ar 
    17   14   15 ar 
    18   15   16 ar 
    19   16   17 ar 
    20   17   18 ar 
    21   18   19 ar 
    22   20   22 1  
    23   20   21 1  
    24   22   24 am 
    25   22   23 2  
    26   24   30 1  
    27   24   25 1  
    28   25   26 1  
    29   26   27 1  
    30   27   30 1  
    31   27   29 1  
    32   27   28 1  
    33   30   31 1  
    34   31   33 am 
    35   31   32 2  
    36   33   34 1  
    37   34   35 1  
    38   35   40 ar 
    39   35   36 ar 
    40   36   41 1  
    41   36   37 ar 
    42   37   38 ar 
    43   38   39 ar 
    44   39   40 ar 
    45    2   42 1  
    46    3   43 1  
    47    4   44 1  
    48    5   45 1  
    49    8   46 1  
    50    8   47 1  
    51    8   48 1  
    52   11   49 1  
    53   12   50 1  
    54   13   51 1  
    55   13   52 1  
    56   15   53 1  
    57   16   54 1  
    58   17   55 1  
    59   18   56 1  
    60   19   57 1  
    61   20   58 1  
    62   21   59 1  
    63   25   60 1  
    64   25   61 1  
    65   28   62 1  
    66   28   63 1  
    67   28   64 1  
    68   29   65 1  
    69   29   66 1  
    70   29   67 1  
    71   30   68 1  
    72   33   69 1  
    73   34   70 1  
    74   34   71 1  
    75   37   72 1  
    76   38   73 1  
    77   39   74 1  
    78   40   75 1  
    79   41   76 1  
    80   41   77 1  
    81   41   78 1  
@<TRIPOS>SUBSTRUCTURE
     1 SUB1        1 GROUP

