### 
### Created by X-TOOL on Tue Oct 25 01:55:05 2005
### 

@<TRIPOS>MOLECULE
1qiw_ligand
   88    90     1     0     0
SMALL
GAST_HUCK


@<TRIPOS>ATOM
      1 H521       29.9239   50.9416   22.7954 H         1 SUB1        0.056
      2 H531       31.8747   49.4922   22.2922 H         1 SUB1        0.060
      3 H541       31.5520   47.3370   21.0889 H         1 SUB1        0.056
      4 H551       29.2651   46.6400   20.3933 H         1 SUB1        0.060
      5 H561       27.3178   48.0849   20.8946 H         1 SUB1        0.056
      6 H581       26.6831   51.3108   19.6280 H         1 SUB1        0.056
      7 H591       24.7402   50.6744   18.2235 H         1 SUB1        0.060
      8 H601       22.9990   49.1407   19.1192 H         1 SUB1        0.056
      9 H611       23.2106   48.2431   21.4254 H         1 SUB1        0.060
     10 H621       25.1518   48.8726   22.8351 H         1 SUB1        0.056
     11 H631       27.5429   51.5626   21.9293 H         1 SUB1        0.062
     12 H641       27.8955   50.3826   24.2574 H         1 SUB1        0.036
     13 H642       26.2761   49.6841   23.9167 H         1 SUB1        0.036
     14 H651       26.1262   52.5055   23.4453 H         1 SUB1        0.082
     15 H652       26.9695   52.2553   25.0115 H         1 SUB1        0.082
     16 H661       24.4088   51.0236   24.3523 H         1 SUB1        0.201
     17 H662       24.5373   52.5094   25.0491 H         1 SUB1        0.201
     18 H671       26.0266   50.6835   26.5256 H         1 SUB1        0.082
     19 H672       24.3565   50.0760   26.2636 H         1 SUB1        0.082
     20 H681       23.7920   52.6246   26.9910 H         1 SUB1        0.037
     21 H682       25.3448   52.4057   27.8671 H         1 SUB1        0.037
     22 H691       23.3627   51.8702   29.2654 H         1 SUB1        0.082
     23 H692       24.4653   50.4690   29.0473 H         1 SUB1        0.082
     24 H701       22.4612   49.5771   28.7735 H         1 SUB1        0.203
     25 H702       22.8659   49.8861   27.2081 H         1 SUB1        0.203
     26 H711       21.4292   52.0433   28.0708 H         1 SUB1        0.099
     27 H721       19.2620   50.9937   28.6561 H         1 SUB1        0.030
     28 H722       20.5254   50.6633   29.8894 H         1 SUB1        0.030
     29 H723       20.0605   49.3858   28.7153 H         1 SUB1        0.030
     30 H741       20.5878   48.6711   26.5700 H         1 SUB1        0.045
     31 H771       20.3122   52.6135   23.5926 H         1 SUB1        0.049
     32 H781       21.0147   52.9002   25.9353 H         1 SUB1        0.044
     33 H801       18.0552   48.0971   25.2805 H         1 SUB1        0.061
     34 H802       19.0821   46.6496   25.5579 H         1 SUB1        0.061
     35 H811       18.0066   47.1684   22.7858 H         1 SUB1        0.029
     36 H812       16.8883   46.5397   24.0432 H         1 SUB1        0.029
     37 H821       18.9055   44.7993   24.4017 H         1 SUB1        0.026
     38 H822       19.2216   45.2205   22.6843 H         1 SUB1        0.026
     39 H831       17.8055   43.2015   22.8679 H         1 SUB1        0.023
     40 H832       16.9065   44.5503   22.0939 H         1 SUB1        0.023
     41 H833       16.5905   44.1291   23.8113 H         1 SUB1        0.023
     42 H851       20.3944   48.5969   21.6258 H         1 SUB1        0.061
     43 H852       21.4941   50.0138   21.5270 H         1 SUB1        0.061
     44 H861       20.6369   50.6967   19.5461 H         1 SUB1        0.029
     45 H862       18.9464   50.3764   20.0622 H         1 SUB1        0.029
     46 H871       19.5407   47.8684   19.6833 H         1 SUB1        0.026
     47 H872       20.9435   48.4996   18.7557 H         1 SUB1        0.026
     48 H881       19.0457   47.9661   17.2617 H         1 SUB1        0.023
     49 H882       19.3971   49.7276   17.2526 H         1 SUB1        0.023
     50 H883       17.9943   49.0964   18.1802 H         1 SUB1        0.023
     51 C11        28.4700   49.6290   21.8850 C.ar      1 SUB1       -0.029
     52 C12        29.7730   50.0050   22.2710 C.ar      1 SUB1       -0.058
     53 C13        30.8810   49.1850   21.9870 C.ar      1 SUB1       -0.068
     54 C14        30.7000   47.9700   21.3090 C.ar      1 SUB1       -0.068
     55 C15        29.4100   47.5780   20.9170 C.ar      1 SUB1       -0.068
     56 C16        28.3090   48.3980   21.2020 C.ar      1 SUB1       -0.058
     57 C21        26.0680   50.1420   21.3390 C.ar      1 SUB1       -0.029
     58 C22        25.9300   50.6410   20.0270 C.ar      1 SUB1       -0.058
     59 C23        24.8300   50.2820   19.2300 C.ar      1 SUB1       -0.068
     60 C24        23.8480   49.4170   19.7340 C.ar      1 SUB1       -0.068
     61 C25        23.9680   48.9120   21.0330 C.ar      1 SUB1       -0.068
     62 C26        25.0680   49.2700   21.8300 C.ar      1 SUB1       -0.058
     63 C1         27.2670   50.5330   22.2010 C.3       1 SUB1        0.030
     64 C2         26.9490   50.5310   23.7170 C.3       1 SUB1        0.009
     65 C3         26.2800   51.8070   24.2810 C.3       1 SUB1       -0.030
     66 N4         24.9720   51.6050   24.9530 N.4       1 SUB1        0.227
     67 C5         24.9910   50.9740   26.2950 C.3       1 SUB1       -0.029
     68 C6         24.4820   51.8860   27.4250 C.3       1 SUB1        0.028
     69 C7         23.7430   51.1300   28.5460 C.3       1 SUB1       -0.027
     70 N8         22.6000   50.3020   28.0870 N.4       1 SUB1        0.240
     71 C9         21.2900   50.9690   27.8800 C.3       1 SUB1        0.001
     72 C19        20.2070   50.4670   28.8550 C.3       1 SUB1       -0.013
     73 C31        20.8550   50.8050   26.4370 C.ar      1 SUB1       -0.015
     74 C32        20.5270   49.5350   25.9180 C.ar      1 SUB1       -0.034
     75 C33        20.1240   49.3520   24.5840 C.ar      1 SUB1        0.114
     76 C34        20.0370   50.4750   23.7030 C.ar      1 SUB1        0.113
     77 C35        20.3690   51.7430   24.2360 C.ar      1 SUB1       -0.048
     78 C36        20.7690   51.9100   25.5690 C.ar      1 SUB1       -0.075
     79 O3         19.8400   48.0490   24.2390 O.3       1 SUB1       -0.323
     80 C41        18.7220   47.3640   24.8030 C.3       1 SUB1        0.068
     81 C42        17.9400   46.6030   23.7270 C.3       1 SUB1       -0.026
     82 C43        18.4550   45.1770   23.4720 C.3       1 SUB1       -0.054
     83 C44        17.3620   44.1950   23.0300 C.3       1 SUB1       -0.065
     84 O4         19.6490   50.3670   22.3860 O.3       1 SUB1       -0.326
     85 C51        20.4510   49.6780   21.4310 C.3       1 SUB1        0.066
     86 C52        19.9620   49.9580   20.0030 C.3       1 SUB1       -0.026
     87 C53        19.9200   48.7170   19.0950 C.3       1 SUB1       -0.054
     88 C54        19.0260   48.8890   17.8600 C.3       1 SUB1       -0.065
@<TRIPOS>BOND
     1   52    1 1  
     2   53    2 1  
     3   54    3 1  
     4   55    4 1  
     5   56    5 1  
     6   58    6 1  
     7   59    7 1  
     8   60    8 1  
     9   61    9 1  
    10   62   10 1  
    11   63   11 1  
    12   64   12 1  
    13   64   13 1  
    14   65   14 1  
    15   65   15 1  
    16   66   16 1  
    17   66   17 1  
    18   67   18 1  
    19   67   19 1  
    20   68   20 1  
    21   68   21 1  
    22   69   22 1  
    23   69   23 1  
    24   70   24 1  
    25   70   25 1  
    26   71   26 1  
    27   72   27 1  
    28   72   28 1  
    29   72   29 1  
    30   74   30 1  
    31   77   31 1  
    32   78   32 1  
    33   80   33 1  
    34   80   34 1  
    35   81   35 1  
    36   81   36 1  
    37   82   37 1  
    38   82   38 1  
    39   83   39 1  
    40   83   40 1  
    41   83   41 1  
    42   85   42 1  
    43   85   43 1  
    44   86   44 1  
    45   86   45 1  
    46   87   46 1  
    47   87   47 1  
    48   88   48 1  
    49   88   49 1  
    50   88   50 1  
    51   63   51 1  
    52   51   56 ar 
    53   51   52 ar 
    54   52   53 ar 
    55   53   54 ar 
    56   55   54 ar 
    57   56   55 ar 
    58   64   63 1  
    59   63   57 1  
    60   57   62 ar 
    61   57   58 ar 
    62   58   59 ar 
    63   59   60 ar 
    64   61   60 ar 
    65   62   61 ar 
    66   65   64 1  
    67   66   65 1  
    68   67   66 1  
    69   68   67 1  
    70   69   68 1  
    71   70   69 1  
    72   71   70 1  
    73   73   71 1  
    74   71   72 1  
    75   73   78 ar 
    76   74   73 ar 
    77   75   74 ar 
    78   79   75 1  
    79   75   76 ar 
    80   76   84 1  
    81   76   77 ar 
    82   77   78 ar 
    83   84   85 1  
    84   85   86 1  
    85   86   87 1  
    86   87   88 1  
    87   80   79 1  
    88   81   80 1  
    89   82   81 1  
    90   82   83 1  
@<TRIPOS>SUBSTRUCTURE
     1 SUB1        1 GROUP

