1qiw_ligand
  -I-interpret- 

 88 90  0  0  0  0  0  0  0  0999 V2000
   29.9239   50.9416   22.7954 H   0  0  0  0  0
   31.8747   49.4922   22.2922 H   0  0  0  0  0
   31.5520   47.3370   21.0889 H   0  0  0  0  0
   29.2651   46.6400   20.3933 H   0  0  0  0  0
   27.3178   48.0849   20.8946 H   0  0  0  0  0
   26.6831   51.3108   19.6280 H   0  0  0  0  0
   24.7402   50.6744   18.2235 H   0  0  0  0  0
   22.9990   49.1407   19.1192 H   0  0  0  0  0
   23.2106   48.2431   21.4254 H   0  0  0  0  0
   25.1518   48.8726   22.8351 H   0  0  0  0  0
   27.5429   51.5626   21.9293 H   0  0  0  0  0
   27.8955   50.3826   24.2574 H   0  0  0  0  0
   26.2761   49.6841   23.9167 H   0  0  0  0  0
   26.1262   52.5055   23.4453 H   0  0  0  0  0
   26.9695   52.2553   25.0115 H   0  0  0  0  0
   24.4088   51.0236   24.3523 H   0  0  0  0  0
   24.5373   52.5094   25.0491 H   0  0  0  0  0
   26.0266   50.6835   26.5256 H   0  0  0  0  0
   24.3565   50.0760   26.2636 H   0  0  0  0  0
   23.7920   52.6246   26.9910 H   0  0  0  0  0
   25.3448   52.4057   27.8671 H   0  0  0  0  0
   23.3627   51.8702   29.2654 H   0  0  0  0  0
   24.4653   50.4690   29.0473 H   0  0  0  0  0
   22.4612   49.5771   28.7735 H   0  0  0  0  0
   22.8659   49.8861   27.2081 H   0  0  0  0  0
   21.4292   52.0433   28.0708 H   0  0  0  0  0
   19.2620   50.9937   28.6561 H   0  0  0  0  0
   20.5254   50.6633   29.8894 H   0  0  0  0  0
   20.0605   49.3858   28.7153 H   0  0  0  0  0
   20.5878   48.6711   26.5700 H   0  0  0  0  0
   20.3122   52.6135   23.5926 H   0  0  0  0  0
   21.0147   52.9002   25.9353 H   0  0  0  0  0
   18.0552   48.0971   25.2805 H   0  0  0  0  0
   19.0821   46.6496   25.5579 H   0  0  0  0  0
   18.0066   47.1684   22.7858 H   0  0  0  0  0
   16.8883   46.5397   24.0432 H   0  0  0  0  0
   18.9055   44.7993   24.4017 H   0  0  0  0  0
   19.2216   45.2205   22.6843 H   0  0  0  0  0
   17.8055   43.2015   22.8679 H   0  0  0  0  0
   16.9065   44.5503   22.0939 H   0  0  0  0  0
   16.5905   44.1291   23.8113 H   0  0  0  0  0
   20.3944   48.5969   21.6258 H   0  0  0  0  0
   21.4941   50.0138   21.5270 H   0  0  0  0  0
   20.6369   50.6967   19.5461 H   0  0  0  0  0
   18.9464   50.3764   20.0622 H   0  0  0  0  0
   19.5407   47.8684   19.6833 H   0  0  0  0  0
   20.9435   48.4996   18.7557 H   0  0  0  0  0
   19.0457   47.9661   17.2617 H   0  0  0  0  0
   19.3971   49.7276   17.2526 H   0  0  0  0  0
   17.9943   49.0964   18.1802 H   0  0  0  0  0
   28.4700   49.6290   21.8850 C   0  0  0  0  0
   29.7730   50.0050   22.2710 C   0  0  0  0  0
   30.8810   49.1850   21.9870 C   0  0  0  0  0
   30.7000   47.9700   21.3090 C   0  0  0  0  0
   29.4100   47.5780   20.9170 C   0  0  0  0  0
   28.3090   48.3980   21.2020 C   0  0  0  0  0
   26.0680   50.1420   21.3390 C   0  0  0  0  0
   25.9300   50.6410   20.0270 C   0  0  0  0  0
   24.8300   50.2820   19.2300 C   0  0  0  0  0
   23.8480   49.4170   19.7340 C   0  0  0  0  0
   23.9680   48.9120   21.0330 C   0  0  0  0  0
   25.0680   49.2700   21.8300 C   0  0  0  0  0
   27.2670   50.5330   22.2010 C   0  0  0  0  0
   26.9490   50.5310   23.7170 C   0  0  0  0  0
   26.2800   51.8070   24.2810 C   0  0  0  0  0
   24.9720   51.6050   24.9530 N   0  3  0  0  0
   24.9910   50.9740   26.2950 C   0  0  0  0  0
   24.4820   51.8860   27.4250 C   0  0  0  0  0
   23.7430   51.1300   28.5460 C   0  0  0  0  0
   22.6000   50.3020   28.0870 N   0  3  0  0  0
   21.2900   50.9690   27.8800 C   0  0  0  0  0
   20.2070   50.4670   28.8550 C   0  0  0  0  0
   20.8550   50.8050   26.4370 C   0  0  0  0  0
   20.5270   49.5350   25.9180 C   0  0  0  0  0
   20.1240   49.3520   24.5840 C   0  0  0  0  0
   20.0370   50.4750   23.7030 C   0  0  0  0  0
   20.3690   51.7430   24.2360 C   0  0  0  0  0
   20.7690   51.9100   25.5690 C   0  0  0  0  0
   19.8400   48.0490   24.2390 O   0  0  0  0  0
   18.7220   47.3640   24.8030 C   0  0  0  0  0
   17.9400   46.6030   23.7270 C   0  0  0  0  0
   18.4550   45.1770   23.4720 C   0  0  0  0  0
   17.3620   44.1950   23.0300 C   0  0  0  0  0
   19.6490   50.3670   22.3860 O   0  0  0  0  0
   20.4510   49.6780   21.4310 C   0  0  0  0  0
   19.9620   49.9580   20.0030 C   0  0  0  0  0
   19.9200   48.7170   19.0950 C   0  0  0  0  0
   19.0260   48.8890   17.8600 C   0  0  0  0  0
 52  1  1  0  0  0
 53  2  1  0  0  0
 54  3  1  0  0  0
 55  4  1  0  0  0
 56  5  1  0  0  0
 58  6  1  0  0  0
 59  7  1  0  0  0
 60  8  1  0  0  0
 61  9  1  0  0  0
 62 10  1  0  0  0
 63 11  1  0  0  0
 64 12  1  0  0  0
 64 13  1  0  0  0
 65 14  1  0  0  0
 65 15  1  0  0  0
 66 16  1  0  0  0
 66 17  1  0  0  0
 67 18  1  0  0  0
 67 19  1  0  0  0
 68 20  1  0  0  0
 68 21  1  0  0  0
 69 22  1  0  0  0
 69 23  1  0  0  0
 70 24  1  0  0  0
 70 25  1  0  0  0
 71 26  1  0  0  0
 72 27  1  0  0  0
 72 28  1  0  0  0
 72 29  1  0  0  0
 74 30  1  0  0  0
 77 31  1  0  0  0
 78 32  1  0  0  0
 80 33  1  0  0  0
 80 34  1  0  0  0
 81 35  1  0  0  0
 81 36  1  0  0  0
 82 37  1  0  0  0
 82 38  1  0  0  0
 83 39  1  0  0  0
 83 40  1  0  0  0
 83 41  1  0  0  0
 85 42  1  0  0  0
 85 43  1  0  0  0
 86 44  1  0  0  0
 86 45  1  0  0  0
 87 46  1  0  0  0
 87 47  1  0  0  0
 88 48  1  0  0  0
 88 49  1  0  0  0
 88 50  1  0  0  0
 63 51  1  0  0  0
 51 56  4  0  0  0
 51 52  4  0  0  0
 52 53  4  0  0  0
 53 54  4  0  0  0
 55 54  4  0  0  0
 56 55  4  0  0  0
 64 63  1  0  0  0
 63 57  1  0  0  0
 57 62  4  0  0  0
 57 58  4  0  0  0
 58 59  4  0  0  0
 59 60  4  0  0  0
 61 60  4  0  0  0
 62 61  4  0  0  0
 65 64  1  0  0  0
 66 65  1  0  0  0
 67 66  1  0  0  0
 68 67  1  0  0  0
 69 68  1  0  0  0
 70 69  1  0  0  0
 71 70  1  0  0  0
 73 71  1  0  0  0
 71 72  1  0  0  0
 73 78  4  0  0  0
 74 73  4  0  0  0
 75 74  4  0  0  0
 79 75  1  0  0  0
 75 76  4  0  0  0
 76 84  1  0  0  0
 76 77  4  0  0  0
 77 78  4  0  0  0
 84 85  1  0  0  0
 85 86  1  0  0  0
 86 87  1  0  0  0
 87 88  1  0  0  0
 80 79  1  0  0  0
 81 80  1  0  0  0
 82 81  1  0  0  0
 82 83  1  0  0  0
M  END
$$$$
