### 
### Created by X-TOOL on Mon Oct 24 22:27:43 2005
### 

@<TRIPOS>MOLECULE
1ppl_ligand
   91    91     1     0     0
SMALL
GAST_HUCK


@<TRIPOS>ATOM
      1 H541       17.7246    6.1247   17.6738 H         1 SUB1        0.188
      2 H551       19.0666    4.8343   20.0320 H         1 SUB1        0.080
      3 H581       21.1662    5.8968   18.9659 H         1 SUB1        0.034
      4 H591       20.6050    3.5073   18.6350 H         1 SUB1        0.023
      5 H592       21.3380    4.1766   17.1379 H         1 SUB1        0.023
      6 H593       19.5618    3.9270   17.2342 H         1 SUB1        0.023
      7 H601       19.3751    6.3297   16.5397 H         1 SUB1        0.023
      8 H602       21.1602    6.5201   16.6008 H         1 SUB1        0.023
      9 H603       20.1067    7.6187   17.5545 H         1 SUB1        0.023
     10 H611       20.2478    6.2908   21.3700 H         1 SUB1        0.188
     11 H621       19.1630    9.1807   21.2001 H         1 SUB1        0.080
     12 H651       19.5091    7.5486   23.7596 H         1 SUB1        0.034
     13 H661       19.8553   10.0733   23.9734 H         1 SUB1        0.023
     14 H662       18.3307    9.5595   24.7721 H         1 SUB1        0.023
     15 H663       18.2782   10.3448   23.1575 H         1 SUB1        0.023
     16 H671       16.9990    8.5260   22.2750 H         1 SUB1        0.023
     17 H672       17.0248    7.6673   23.8525 H         1 SUB1        0.023
     18 H673       17.5489    6.8180   22.3590 H         1 SUB1        0.023
     19 H481       15.7189    5.0313   16.9034 H         1 SUB1        0.051
     20 H482       16.2873    3.3299   16.8111 H         1 SUB1        0.051
     21 H491       14.8049    2.7183   18.7422 H         1 SUB1        0.032
     22 H501       13.3946    4.6300   19.6513 H         1 SUB1        0.023
     23 H502       14.1687    5.7397   18.4698 H         1 SUB1        0.023
     24 H503       15.1450    5.0093   19.7890 H         1 SUB1        0.023
     25 H511       13.6170    2.6898   16.5780 H         1 SUB1        0.023
     26 H512       13.3460    4.4619   16.6915 H         1 SUB1        0.023
     27 H513       12.5511    3.3549   17.8618 H         1 SUB1        0.023
     28 H681       23.5376    9.4529   22.0502 H         1 SUB1        0.062
     29 H691       24.9569    9.4970   20.1314 H         1 SUB1        0.029
     30 H692       23.5898    9.9313   19.0501 H         1 SUB1        0.029
     31 H701       22.6481    7.6779   19.4952 H         1 SUB1        0.030
     32 H711       24.0155    6.5525   17.8058 H         1 SUB1        0.023
     33 H712       25.1851    7.9111   17.9181 H         1 SUB1        0.023
     34 H713       23.4918    8.2237   17.4065 H         1 SUB1        0.023
     35 H721       23.7875    7.2219   21.5571 H         1 SUB1        0.023
     36 H722       25.2750    6.8574   20.6186 H         1 SUB1        0.023
     37 H723       23.7890    5.8818   20.3609 H         1 SUB1        0.023
     38 H731       21.1202    9.9074   20.3984 H         1 SUB1        0.186
     39 H771       24.2528   13.6046   22.7969 H         1 SUB1        0.093
     40 H781       21.9620   14.4530   23.3281 H         1 SUB1        0.048
     41 H782       23.1640   14.8182   24.6121 H         1 SUB1        0.048
     42 H801       22.8513   14.0528   26.8415 H         1 SUB1        0.056
     43 H811       20.1577   12.7869   23.7556 H         1 SUB1        0.056
     44 H821       21.3260   13.0468   28.5141 H         1 SUB1        0.060
     45 H831       18.8528   11.5525   25.4172 H         1 SUB1        0.060
     46 H841       19.2687   11.8625   27.8057 H         1 SUB1        0.056
     47 H861       26.5533   13.4617   26.8999 H         1 SUB1        0.058
     48 CA         15.9420    4.1260   17.4870 C.3       1 SUB1        0.040
     49 CB         14.6430    3.6540   18.1870 C.3       1 SUB1       -0.030
     50 CG1        14.3150    4.8410   19.0870 C.3       1 SUB1       -0.061
     51 CG2        13.4600    3.5320   17.2680 C.3       1 SUB1       -0.061
     52 C          17.0680    4.4480   18.4850 C.2       1 SUB1        0.178
     53 O          17.1950    3.6450   19.4790 O.2       1 SUB1       -0.397
     54 N          17.8820    5.4490   18.3940 N.am      1 SUB1       -0.265
     55 CA         19.0160    5.6420   19.2870 C.3       1 SUB1        0.133
     56 C          18.9210    6.9900   19.9870 C.2       1 SUB1        0.204
     57 O          18.1180    7.8830   19.5600 O.2       1 SUB1       -0.394
     58 CB         20.2910    5.6330   18.3540 C.3       1 SUB1       -0.006
     59 CG1        20.4610    4.2100   17.8010 C.3       1 SUB1       -0.058
     60 CG2        20.2290    6.5910   17.1820 C.3       1 SUB1       -0.058
     61 N          19.6870    7.0590   21.0610 N.am      1 SUB1       -0.264
     62 CA         19.6540    8.3980   21.7970 C.3       1 SUB1        0.133
     63 C          21.1900    8.6890   21.9870 C.2       1 SUB1        0.202
     64 O          21.7700    8.0720   22.8770 O.2       1 SUB1       -0.394
     65 CB         18.9620    8.2550   23.1180 C.3       1 SUB1       -0.006
     66 CG1        18.8480    9.6640   23.8070 C.3       1 SUB1       -0.058
     67 CG2        17.5350    7.7840   22.8850 C.3       1 SUB1       -0.058
     68 CA         23.1040    9.9030   21.1450 C.3       1 SUB1        0.097
     69 CB         23.8890    9.3340   19.9240 C.3       1 SUB1       -0.022
     70 CG         23.7360    7.8390   19.5170 C.3       1 SUB1       -0.044
     71 CD1        24.1350    7.6160   18.0600 C.3       1 SUB1       -0.063
     72 CD2        24.1760    6.8870   20.5840 C.3       1 SUB1       -0.063
     73 N          21.7090    9.5240   21.1100 N.am      1 SUB1       -0.276
     74 P          23.3210   11.6840   21.2810 P.3       1 SUB1        0.153
     75 O          22.4510   12.2770   20.2720 O.co2     1 SUB1       -0.543
     76 OH         24.7520   12.0150   21.1000 O.co2     1 SUB1       -0.543
     77 CA         23.5860   13.0410   23.4660 C.3       1 SUB1        0.184
     78 CB         22.5800   14.0210   24.1290 C.3       1 SUB1        0.030
     79 CG         21.6400   13.4480   25.1720 C.ar      1 SUB1       -0.038
     80 CD1        21.9520   13.5400   26.5200 C.ar      1 SUB1       -0.060
     81 CD2        20.4620   12.7950   24.7960 C.ar      1 SUB1       -0.060
     82 CE1        21.0920   12.9630   27.4590 C.ar      1 SUB1       -0.069
     83 CE2        19.6880   12.1630   25.7410 C.ar      1 SUB1       -0.069
     84 CZ         19.9430   12.2840   27.0690 C.ar      1 SUB1       -0.069
     85 C          24.3990   12.3760   24.6000 C.2       1 SUB1        0.269
     86 CS         25.9890   12.6670   26.3900 C.3       1 SUB1        0.066
     87 OP         22.9280   11.9630   22.7000 O.3       1 SUB1       -0.302
     88 OS         25.1990   13.2320   25.3720 O.3       1 SUB1       -0.278
     89 O          24.3280   11.1650   24.8400 O.2       1 SUB1       -0.367
     90 H862       26.6910   11.9432   25.9503 H         1 SUB1        0.058
     91 H863       25.3404   12.1544   27.1157 H         1 SUB1        0.058
@<TRIPOS>BOND
     1   54    1 1  
     2   55    2 1  
     3   58    3 1  
     4   59    4 1  
     5   59    5 1  
     6   59    6 1  
     7   60    7 1  
     8   60    8 1  
     9   60    9 1  
    10   61   10 1  
    11   62   11 1  
    12   65   12 1  
    13   66   13 1  
    14   66   14 1  
    15   66   15 1  
    16   67   16 1  
    17   67   17 1  
    18   67   18 1  
    19   48   19 1  
    20   48   20 1  
    21   49   21 1  
    22   50   22 1  
    23   50   23 1  
    24   50   24 1  
    25   51   25 1  
    26   51   26 1  
    27   51   27 1  
    28   68   28 1  
    29   69   29 1  
    30   69   30 1  
    31   70   31 1  
    32   71   32 1  
    33   71   33 1  
    34   71   34 1  
    35   72   35 1  
    36   72   36 1  
    37   72   37 1  
    38   73   38 1  
    39   77   39 1  
    40   78   40 1  
    41   78   41 1  
    42   80   42 1  
    43   81   43 1  
    44   82   44 1  
    45   83   45 1  
    46   84   46 1  
    47   86   47 1  
    48   55   54 1  
    49   55   58 1  
    50   56   55 1  
    51   56   57 2  
    52   58   60 1  
    53   58   59 1  
    54   62   61 1  
    55   62   65 1  
    56   63   62 1  
    57   63   64 2  
    58   65   67 1  
    59   65   66 1  
    60   61   56 am 
    61   48   49 1  
    62   52   48 1  
    63   49   50 1  
    64   49   51 1  
    65   52   53 2  
    66   54   52 am 
    67   68   69 1  
    68   68   73 1  
    69   74   68 1  
    70   69   70 1  
    71   70   71 1  
    72   70   72 1  
    73   73   63 am 
    74   74   75 2  
    75   74   76 2  
    76   77   78 1  
    77   85   77 1  
    78   77   87 1  
    79   78   79 1  
    80   79   80 ar 
    81   79   81 ar 
    82   80   82 ar 
    83   81   83 ar 
    84   82   84 ar 
    85   83   84 ar 
    86   88   85 1  
    87   85   89 2  
    88   87   74 1  
    89   88   86 1  
    90   86   90 1  
    91   86   91 1  
@<TRIPOS>SUBSTRUCTURE
     1 SUB1        1 GROUP

