1ppl_ligand
  -I-interpret- 

 91 91  0  0  0  0  0  0  0  0999 V2000
   17.7246    6.1247   17.6738 H   0  0  0  0  0
   19.0666    4.8343   20.0320 H   0  0  0  0  0
   21.1662    5.8968   18.9659 H   0  0  0  0  0
   20.6050    3.5073   18.6350 H   0  0  0  0  0
   21.3380    4.1766   17.1379 H   0  0  0  0  0
   19.5618    3.9270   17.2342 H   0  0  0  0  0
   19.3751    6.3297   16.5397 H   0  0  0  0  0
   21.1602    6.5201   16.6008 H   0  0  0  0  0
   20.1067    7.6187   17.5545 H   0  0  0  0  0
   20.2478    6.2908   21.3700 H   0  0  0  0  0
   19.1630    9.1807   21.2001 H   0  0  0  0  0
   19.5091    7.5486   23.7596 H   0  0  0  0  0
   19.8553   10.0733   23.9734 H   0  0  0  0  0
   18.3307    9.5595   24.7721 H   0  0  0  0  0
   18.2782   10.3448   23.1575 H   0  0  0  0  0
   16.9990    8.5260   22.2750 H   0  0  0  0  0
   17.0248    7.6673   23.8525 H   0  0  0  0  0
   17.5489    6.8180   22.3590 H   0  0  0  0  0
   15.7189    5.0313   16.9034 H   0  0  0  0  0
   16.2873    3.3299   16.8111 H   0  0  0  0  0
   14.8049    2.7183   18.7422 H   0  0  0  0  0
   13.3946    4.6300   19.6513 H   0  0  0  0  0
   14.1687    5.7397   18.4698 H   0  0  0  0  0
   15.1450    5.0093   19.7890 H   0  0  0  0  0
   13.6170    2.6898   16.5780 H   0  0  0  0  0
   13.3460    4.4619   16.6915 H   0  0  0  0  0
   12.5511    3.3549   17.8618 H   0  0  0  0  0
   23.5376    9.4529   22.0502 H   0  0  0  0  0
   24.9569    9.4970   20.1314 H   0  0  0  0  0
   23.5898    9.9313   19.0501 H   0  0  0  0  0
   22.6481    7.6779   19.4952 H   0  0  0  0  0
   24.0155    6.5525   17.8058 H   0  0  0  0  0
   25.1851    7.9111   17.9181 H   0  0  0  0  0
   23.4918    8.2237   17.4065 H   0  0  0  0  0
   23.7875    7.2219   21.5571 H   0  0  0  0  0
   25.2750    6.8574   20.6186 H   0  0  0  0  0
   23.7890    5.8818   20.3609 H   0  0  0  0  0
   21.1202    9.9074   20.3984 H   0  0  0  0  0
   24.2528   13.6046   22.7969 H   0  0  0  0  0
   21.9620   14.4530   23.3281 H   0  0  0  0  0
   23.1640   14.8182   24.6121 H   0  0  0  0  0
   22.8513   14.0528   26.8415 H   0  0  0  0  0
   20.1577   12.7869   23.7556 H   0  0  0  0  0
   21.3260   13.0468   28.5141 H   0  0  0  0  0
   18.8528   11.5525   25.4172 H   0  0  0  0  0
   19.2687   11.8625   27.8057 H   0  0  0  0  0
   26.5533   13.4617   26.8999 H   0  0  0  0  0
   15.9420    4.1260   17.4870 C   0  0  0  0  0
   14.6430    3.6540   18.1870 C   0  0  0  0  0
   14.3150    4.8410   19.0870 C   0  0  0  0  0
   13.4600    3.5320   17.2680 C   0  0  0  0  0
   17.0680    4.4480   18.4850 C   0  0  0  0  0
   17.1950    3.6450   19.4790 O   0  0  0  0  0
   17.8820    5.4490   18.3940 N   0  0  0  0  0
   19.0160    5.6420   19.2870 C   0  0  0  0  0
   18.9210    6.9900   19.9870 C   0  0  0  0  0
   18.1180    7.8830   19.5600 O   0  0  0  0  0
   20.2910    5.6330   18.3540 C   0  0  0  0  0
   20.4610    4.2100   17.8010 C   0  0  0  0  0
   20.2290    6.5910   17.1820 C   0  0  0  0  0
   19.6870    7.0590   21.0610 N   0  0  0  0  0
   19.6540    8.3980   21.7970 C   0  0  0  0  0
   21.1900    8.6890   21.9870 C   0  0  0  0  0
   21.7700    8.0720   22.8770 O   0  0  0  0  0
   18.9620    8.2550   23.1180 C   0  0  0  0  0
   18.8480    9.6640   23.8070 C   0  0  0  0  0
   17.5350    7.7840   22.8850 C   0  0  0  0  0
   23.1040    9.9030   21.1450 C   0  0  0  0  0
   23.8890    9.3340   19.9240 C   0  0  0  0  0
   23.7360    7.8390   19.5170 C   0  0  0  0  0
   24.1350    7.6160   18.0600 C   0  0  0  0  0
   24.1760    6.8870   20.5840 C   0  0  0  0  0
   21.7090    9.5240   21.1100 N   0  0  0  0  0
   23.3210   11.6840   21.2810 P   0  0  0  0  0
   22.4510   12.2770   20.2720 O   0  0  0  0  0
   24.7520   12.0150   21.1000 O   0  5  0  0  0
   23.5860   13.0410   23.4660 C   0  0  0  0  0
   22.5800   14.0210   24.1290 C   0  0  0  0  0
   21.6400   13.4480   25.1720 C   0  0  0  0  0
   21.9520   13.5400   26.5200 C   0  0  0  0  0
   20.4620   12.7950   24.7960 C   0  0  0  0  0
   21.0920   12.9630   27.4590 C   0  0  0  0  0
   19.6880   12.1630   25.7410 C   0  0  0  0  0
   19.9430   12.2840   27.0690 C   0  0  0  0  0
   24.3990   12.3760   24.6000 C   0  0  0  0  0
   25.9890   12.6670   26.3900 C   0  0  0  0  0
   22.9280   11.9630   22.7000 O   0  0  0  0  0
   25.1990   13.2320   25.3720 O   0  0  0  0  0
   24.3280   11.1650   24.8400 O   0  0  0  0  0
   26.6910   11.9432   25.9503 H   0  0  0  0  0
   25.3404   12.1544   27.1157 H   0  0  0  0  0
 54  1  1  0  0  0
 55  2  1  0  0  0
 58  3  1  0  0  0
 59  4  1  0  0  0
 59  5  1  0  0  0
 59  6  1  0  0  0
 60  7  1  0  0  0
 60  8  1  0  0  0
 60  9  1  0  0  0
 61 10  1  0  0  0
 62 11  1  0  0  0
 65 12  1  0  0  0
 66 13  1  0  0  0
 66 14  1  0  0  0
 66 15  1  0  0  0
 67 16  1  0  0  0
 67 17  1  0  0  0
 67 18  1  0  0  0
 48 19  1  0  0  0
 48 20  1  0  0  0
 49 21  1  0  0  0
 50 22  1  0  0  0
 50 23  1  0  0  0
 50 24  1  0  0  0
 51 25  1  0  0  0
 51 26  1  0  0  0
 51 27  1  0  0  0
 68 28  1  0  0  0
 69 29  1  0  0  0
 69 30  1  0  0  0
 70 31  1  0  0  0
 71 32  1  0  0  0
 71 33  1  0  0  0
 71 34  1  0  0  0
 72 35  1  0  0  0
 72 36  1  0  0  0
 72 37  1  0  0  0
 73 38  1  0  0  0
 77 39  1  0  0  0
 78 40  1  0  0  0
 78 41  1  0  0  0
 80 42  1  0  0  0
 81 43  1  0  0  0
 82 44  1  0  0  0
 83 45  1  0  0  0
 84 46  1  0  0  0
 86 47  1  0  0  0
 55 54  1  0  0  0
 55 58  1  0  0  0
 56 55  1  0  0  0
 56 57  2  0  0  0
 58 60  1  0  0  0
 58 59  1  0  0  0
 62 61  1  0  0  0
 62 65  1  0  0  0
 63 62  1  0  0  0
 63 64  2  0  0  0
 65 67  1  0  0  0
 65 66  1  0  0  0
 61 56  1  0  0  0
 48 49  1  0  0  0
 52 48  1  0  0  0
 49 50  1  0  0  0
 49 51  1  0  0  0
 52 53  2  0  0  0
 54 52  1  0  0  0
 68 69  1  0  0  0
 68 73  1  0  0  0
 74 68  1  0  0  0
 69 70  1  0  0  0
 70 71  1  0  0  0
 70 72  1  0  0  0
 73 63  1  0  0  0
 74 75  2  0  0  0
 74 76  1  0  0  0
 77 78  1  0  0  0
 85 77  1  0  0  0
 77 87  1  0  0  0
 78 79  1  0  0  0
 79 80  4  0  0  0
 79 81  4  0  0  0
 80 82  4  0  0  0
 81 83  4  0  0  0
 82 84  4  0  0  0
 83 84  4  0  0  0
 88 85  1  0  0  0
 85 89  2  0  0  0
 87 74  1  0  0  0
 88 86  1  0  0  0
 86 90  1  0  0  0
 86 91  1  0  0  0
M  END
$$$$
