### 
### Created by X-TOOL on Tue Oct 25 01:43:12 2005
### 

@<TRIPOS>MOLECULE
1m1b_ligand
   12    11     1     0     0
SMALL
GAST_HUCK


@<TRIPOS>ATOM
      1 H71        28.2752   67.3921   73.1745 H         1 SUB1        0.068
      2 H72        26.9976   68.5380   73.7051 H         1 SUB1        0.068
      3 C1         30.3110   69.4470   73.1140 C.2       1 SUB1        0.136
      4 O1         30.8240   68.4790   72.4320 O.co2     1 SUB1       -0.522
      5 O2'        30.9770   70.3480   73.5750 O.co2     1 SUB1       -0.522
      6 C2         28.7920   69.3220   73.2920 C.2       1 SUB1        0.170
      7 C3         28.0660   68.2870   73.7790 C.3       1 SUB1        0.105
      8 O2         28.1120   70.3400   72.9260 O.2       1 SUB1       -0.378
      9 S          28.4660   67.9240   75.5260 S.o2      1 SUB1       -0.177
     10 O1S        28.2630   69.1270   76.2210 O.co2     1 SUB1       -0.483
     11 O2S        29.8230   67.4780   75.5040 O.co2     1 SUB1       -0.483
     12 O3S        27.5120   67.0010   75.9560 O.co2     1 SUB1       -0.483
@<TRIPOS>BOND
     1    3    6 1  
     2    3    5 2  
     3    3    4 2  
     4    6    8 2  
     5    6    7 1  
     6    7    9 1  
     7    9   12 2  
     8    9   11 2  
     9    9   10 2  
    10    7    1 1  
    11    7    2 1  
@<TRIPOS>SUBSTRUCTURE
     1 SUB1        1 GROUP

