1m1b_ligand
  -I-interpret- 

 12 11  0  0  0  0  0  0  0  0999 V2000
   28.2752   67.3921   73.1745 H   0  0  0  0  0
   26.9976   68.5380   73.7051 H   0  0  0  0  0
   30.3110   69.4470   73.1140 C   0  0  0  0  0
   30.8240   68.4790   72.4320 O   0  5  0  0  0
   30.9770   70.3480   73.5750 O   0  0  0  0  0
   28.7920   69.3220   73.2920 C   0  0  0  0  0
   28.0660   68.2870   73.7790 C   0  0  0  0  0
   28.1120   70.3400   72.9260 O   0  0  0  0  0
   28.4660   67.9240   75.5260 S   0  0  0  0  0
   28.2630   69.1270   76.2210 O   0  0  0  0  0
   29.8230   67.4780   75.5040 O   0  5  0  0  0
   27.5120   67.0010   75.9560 O   0  0  0  0  0
  3  6  1  0  0  0
  3  5  2  0  0  0
  3  4  1  0  0  0
  6  8  2  0  0  0
  6  7  1  0  0  0
  7  9  1  0  0  0
  9 12  2  0  0  0
  9 11  1  0  0  0
  9 10  2  0  0  0
  7  1  1  0  0  0
  7  2  1  0  0  0
M  END
$$$$
