### 
### Created by X-TOOL on Sun Jun  3 11:28:09 2007
### 

@<TRIPOS>MOLECULE
2gv7_ligand
  105   108     1     0     0
SMALL
GAST_HUCK


@<TRIPOS>ATOM
      1 C2         13.2860   67.7070   27.4180 C.3       1 SUB1       -0.016
      2 C4         13.5330   69.2330   27.4640 C.3       1 SUB1       -0.053
      3 C3         14.6020   66.9120   27.5460 C.ar      1 SUB1       -0.054
      4 C9         14.5800   65.6700   28.2110 C.ar      1 SUB1       -0.064
      5 C8         15.7570   64.8720   28.3680 C.ar      1 SUB1       -0.027
      6 C13        15.6410   63.5290   29.1150 C.3       1 SUB1       -0.014
      7 C15        14.3740   62.7220   28.7290 C.3       1 SUB1       -0.053
      8 C14        15.6630   63.7950   30.6460 C.3       1 SUB1       -0.053
      9 C7         17.0210   65.3370   27.8400 C.ar      1 SUB1        0.104
     10 S16        18.5490   64.3310   28.0320 S.o2      1 SUB1        0.062
     11 N19        18.3240   63.0430   27.0200 N.am      1 SUB1       -0.226
     12 C20        17.9920   63.3230   25.6170 C.3       1 SUB1        0.135
     13 C23        19.0940   62.7470   24.6740 C.3       1 SUB1        0.018
     14 C24        18.9320   61.2500   24.3530 C.ar      1 SUB1       -0.039
     15 C29        19.5890   60.2850   25.1810 C.ar      1 SUB1       -0.055
     16 C28        19.4440   58.8960   24.9150 C.ar      1 SUB1        0.019
     17 C30        20.1000   57.9320   25.7230 C.cat     1 SUB1        0.234
     18 N32        20.0620   56.6140   25.4020 N.pl3     1 SUB1       -0.272
     19 N31        20.7970   58.3000   26.8070 N.pl3     1 SUB1       -0.272
     20 C27        18.6270   58.4870   23.8090 C.ar      1 SUB1       -0.064
     21 C26        17.9770   59.4390   22.9820 C.ar      1 SUB1       -0.069
     22 C25        18.1260   60.8180   23.2430 C.ar      1 SUB1       -0.060
     23 C21        16.6060   62.7970   25.3360 C.2       1 SUB1        0.202
     24 N33        15.7050   63.4740   24.3220 N.am      1 SUB1       -0.268
     25 C38        16.2330   64.6340   23.6370 C.3       1 SUB1        0.054
     26 C37        15.1220   65.7200   23.4970 C.3       1 SUB1        0.054
     27 N36        13.7970   65.1170   23.6210 N.am      1 SUB1       -0.269
     28 C39        12.7070   65.7180   22.8210 C.2       1 SUB1        0.182
     29 C41        12.9730   66.9540   21.9940 C.3       1 SUB1        0.055
     30 C46        13.0840   66.5060   20.5020 C.3       1 SUB1        0.000
     31 C45        13.2510   67.7160   19.5630 C.3       1 SUB1        0.067
     32 N44        12.0780   68.6850   19.8440 N.pl3     1 SUB1       -0.259
     33 C47        11.1610   68.9890   18.8840 C.cat     1 SUB1        0.290
     34 N49        11.3570   68.6040   17.6090 N.pl3     1 SUB1       -0.285
     35 N48        10.0270   69.6620   19.1900 N.pl3     1 SUB1       -0.285
     36 C43        11.9640   69.2320   21.2560 C.3       1 SUB1        0.067
     37 C42        11.8190   68.0190   22.2150 C.3       1 SUB1        0.000
     38 O40        11.5860   65.2140   22.8460 O.2       1 SUB1       -0.397
     39 C35        13.3830   63.9740   24.4280 C.3       1 SUB1        0.054
     40 C34        14.3980   62.8590   24.1900 C.3       1 SUB1        0.054
     41 O22        16.2080   61.8010   25.9510 O.2       1 SUB1       -0.395
     42 O18        18.6160   63.7980   29.3830 O.2       1 SUB1       -0.153
     43 O17        19.7050   65.0690   27.5590 O.2       1 SUB1       -0.153
     44 C6         17.0420   66.6290   27.1490 C.ar      1 SUB1       -0.027
     45 C10        18.3340   67.2300   26.5450 C.3       1 SUB1       -0.014
     46 C12        18.8690   68.3860   27.4270 C.3       1 SUB1       -0.053
     47 C11        18.1000   67.7630   25.1080 C.3       1 SUB1       -0.053
     48 C5         15.8330   67.3840   27.0210 C.ar      1 SUB1       -0.064
     49 C1         12.5640   67.3620   26.1020 C.3       1 SUB1       -0.053
     50 H          12.6636   67.4239   28.2668 H         1 SUB1        0.045
     51 H          14.1506   69.5256   26.6149 H         1 SUB1        0.025
     52 H          12.5778   69.7560   27.4174 H         1 SUB1        0.025
     53 H          14.0441   69.4892   28.3920 H         1 SUB1        0.025
     54 H          13.6369   65.3058   28.6185 H         1 SUB1        0.044
     55 H          16.4934   62.9170   28.8202 H         1 SUB1        0.045
     56 H          14.3772   61.7685   29.2571 H         1 SUB1        0.025
     57 H          13.4853   63.2891   29.0058 H         1 SUB1        0.025
     58 H          14.3722   62.5432   27.6538 H         1 SUB1        0.025
     59 H          14.7773   64.3646   30.9273 H         1 SUB1        0.025
     60 H          15.6692   62.8440   31.1787 H         1 SUB1        0.025
     61 H          16.5578   64.3622   30.9021 H         1 SUB1        0.025
     62 H          18.4129   62.0851   27.3590 H         1 SUB1        0.170
     63 H          17.9759   64.3954   25.4225 H         1 SUB1        0.078
     64 H          20.0488   62.8641   25.1866 H         1 SUB1        0.047
     65 H          19.0236   63.2874   23.7300 H         1 SUB1        0.047
     66 H          20.2028   60.6163   26.0186 H         1 SUB1        0.056
     67 H          19.5573   56.3059   24.5709 H         1 SUB1        0.318
     68 H          20.5381   55.9315   25.9919 H         1 SUB1        0.318
     69 H          20.8615   59.2856   27.0615 H         1 SUB1        0.318
     70 H          21.2629   57.5944   27.3775 H         1 SUB1        0.318
     71 H          18.5033   57.4244   23.6000 H         1 SUB1        0.056
     72 H          17.3629   59.1056   22.1455 H         1 SUB1        0.060
     73 H          17.6325   61.5522   22.6062 H         1 SUB1        0.056
     74 H          16.5755   64.3403   22.6447 H         1 SUB1        0.054
     75 H          17.0646   65.0427   24.2111 H         1 SUB1        0.054
     76 H          15.2070   66.1887   22.5166 H         1 SUB1        0.054
     77 H          15.2492   66.4601   24.2871 H         1 SUB1        0.054
     78 H          13.9026   67.4378   22.2938 H         1 SUB1        0.054
     79 H          12.1691   65.9799   20.2295 H         1 SUB1        0.033
     80 H          13.9582   65.8634   20.3975 H         1 SUB1        0.033
     81 H          13.2406   67.3955   18.5212 H         1 SUB1        0.069
     82 H          14.2059   68.2099   19.7425 H         1 SUB1        0.069
     83 H          12.1961   68.0815   17.3573 H         1 SUB1        0.262
     84 H          10.6664   68.8348   16.8947 H         1 SUB1        0.262
     85 H           9.8486   69.9497   20.1522 H         1 SUB1        0.262
     86 H           9.3510   69.8814   18.4584 H         1 SUB1        0.262
     87 H          11.1002   69.8912   21.3412 H         1 SUB1        0.069
     88 H          12.8478   69.8167   21.5112 H         1 SUB1        0.069
     89 H          11.8801   68.3832   23.2405 H         1 SUB1        0.033
     90 H          10.8629   67.5355   22.0144 H         1 SUB1        0.033
     91 H          12.3822   63.6477   24.1449 H         1 SUB1        0.054
     92 H          13.3497   64.2426   25.4839 H         1 SUB1        0.054
     93 H          14.2690   62.0478   24.9066 H         1 SUB1        0.054
     94 H          14.2696   62.4118   23.2043 H         1 SUB1        0.054
     95 H          19.0684   66.4254   26.5075 H         1 SUB1        0.045
     96 H          18.1144   69.1697   27.4935 H         1 SUB1        0.025
     97 H          19.0905   68.0074   28.4249 H         1 SUB1        0.025
     98 H          19.7772   68.7913   26.9809 H         1 SUB1        0.025
     99 H          17.7691   66.9452   24.4679 H         1 SUB1        0.025
    100 H          17.3365   68.5406   25.1301 H         1 SUB1        0.025
    101 H          19.0305   68.1766   24.7193 H         1 SUB1        0.025
    102 H          15.8583   68.3452   26.5076 H         1 SUB1        0.044
    103 H          13.2089   67.6109   25.2592 H         1 SUB1        0.025
    104 H          12.3347   66.2966   26.0834 H         1 SUB1        0.025
    105 H          11.6393   67.9352   26.0353 H         1 SUB1        0.025
@<TRIPOS>BOND
     1    1    2 1  
     2    1    3 1  
     3    1   49 1  
     4    3    4 ar 
     5    3   48 ar 
     6    4    5 ar 
     7    5    6 1  
     8    5    9 ar 
     9    6    7 1  
    10    6    8 1  
    11    9   10 1  
    12    9   44 ar 
    13   10   11 1  
    14   10   42 2  
    15   10   43 2  
    16   11   12 1  
    17   12   13 1  
    18   12   23 1  
    19   13   14 1  
    20   14   15 ar 
    21   14   22 ar 
    22   15   16 ar 
    23   16   17 1  
    24   16   20 ar 
    25   17   18 1  
    26   17   19 1  
    27   20   21 ar 
    28   21   22 ar 
    29   23   24 am 
    30   23   41 2  
    31   24   25 1  
    32   24   40 1  
    33   25   26 1  
    34   26   27 1  
    35   27   28 am 
    36   27   39 1  
    37   28   29 1  
    38   28   38 2  
    39   29   30 1  
    40   29   37 1  
    41   30   31 1  
    42   31   32 1  
    43   32   33 1  
    44   32   36 1  
    45   33   34 1  
    46   33   35 1  
    47   36   37 1  
    48   39   40 1  
    49   44   45 1  
    50   44   48 ar 
    51   45   46 1  
    52   45   47 1  
    53    1   50 1  
    54    2   51 1  
    55    2   52 1  
    56    2   53 1  
    57    4   54 1  
    58    6   55 1  
    59    7   56 1  
    60    7   57 1  
    61    7   58 1  
    62    8   59 1  
    63    8   60 1  
    64    8   61 1  
    65   11   62 1  
    66   12   63 1  
    67   13   64 1  
    68   13   65 1  
    69   15   66 1  
    70   18   67 1  
    71   18   68 1  
    72   19   69 1  
    73   19   70 1  
    74   20   71 1  
    75   21   72 1  
    76   22   73 1  
    77   25   74 1  
    78   25   75 1  
    79   26   76 1  
    80   26   77 1  
    81   29   78 1  
    82   30   79 1  
    83   30   80 1  
    84   31   81 1  
    85   31   82 1  
    86   34   83 1  
    87   34   84 1  
    88   35   85 1  
    89   35   86 1  
    90   36   87 1  
    91   36   88 1  
    92   37   89 1  
    93   37   90 1  
    94   39   91 1  
    95   39   92 1  
    96   40   93 1  
    97   40   94 1  
    98   45   95 1  
    99   46   96 1  
   100   46   97 1  
   101   46   98 1  
   102   47   99 1  
   103   47  100 1  
   104   47  101 1  
   105   48  102 1  
   106   49  103 1  
   107   49  104 1  
   108   49  105 1  
@<TRIPOS>SUBSTRUCTURE
     1 SUB1        1 GROUP

