2gv7_ligand
  -I-interpret- 

105108  0  0  0  0  0  0  0  0999 V2000
   13.2860   67.7070   27.4180 C   0  0  0  0  0
   13.5330   69.2330   27.4640 C   0  0  0  0  0
   14.6020   66.9120   27.5460 C   0  0  0  0  0
   14.5800   65.6700   28.2110 C   0  0  0  0  0
   15.7570   64.8720   28.3680 C   0  0  0  0  0
   15.6410   63.5290   29.1150 C   0  0  0  0  0
   14.3740   62.7220   28.7290 C   0  0  0  0  0
   15.6630   63.7950   30.6460 C   0  0  0  0  0
   17.0210   65.3370   27.8400 C   0  0  0  0  0
   18.5490   64.3310   28.0320 S   0  0  0  0  0
   18.3240   63.0430   27.0200 N   0  0  0  0  0
   17.9920   63.3230   25.6170 C   0  0  0  0  0
   19.0940   62.7470   24.6740 C   0  0  0  0  0
   18.9320   61.2500   24.3530 C   0  0  0  0  0
   19.5890   60.2850   25.1810 C   0  0  0  0  0
   19.4440   58.8960   24.9150 C   0  0  0  0  0
   20.1000   57.9320   25.7230 C   0  3  0  0  0
   20.0620   56.6140   25.4020 N   0  0  0  0  0
   20.7970   58.3000   26.8070 N   0  0  0  0  0
   18.6270   58.4870   23.8090 C   0  0  0  0  0
   17.9770   59.4390   22.9820 C   0  0  0  0  0
   18.1260   60.8180   23.2430 C   0  0  0  0  0
   16.6060   62.7970   25.3360 C   0  0  0  0  0
   15.7050   63.4740   24.3220 N   0  0  0  0  0
   16.2330   64.6340   23.6370 C   0  0  0  0  0
   15.1220   65.7200   23.4970 C   0  0  0  0  0
   13.7970   65.1170   23.6210 N   0  0  0  0  0
   12.7070   65.7180   22.8210 C   0  0  0  0  0
   12.9730   66.9540   21.9940 C   0  0  0  0  0
   13.0840   66.5060   20.5020 C   0  0  0  0  0
   13.2510   67.7160   19.5630 C   0  0  0  0  0
   12.0780   68.6850   19.8440 N   0  0  0  0  0
   11.1610   68.9890   18.8840 C   0  3  0  0  0
   11.3570   68.6040   17.6090 N   0  0  0  0  0
   10.0270   69.6620   19.1900 N   0  0  0  0  0
   11.9640   69.2320   21.2560 C   0  0  0  0  0
   11.8190   68.0190   22.2150 C   0  0  0  0  0
   11.5860   65.2140   22.8460 O   0  0  0  0  0
   13.3830   63.9740   24.4280 C   0  0  0  0  0
   14.3980   62.8590   24.1900 C   0  0  0  0  0
   16.2080   61.8010   25.9510 O   0  0  0  0  0
   18.6160   63.7980   29.3830 O   0  0  0  0  0
   19.7050   65.0690   27.5590 O   0  0  0  0  0
   17.0420   66.6290   27.1490 C   0  0  0  0  0
   18.3340   67.2300   26.5450 C   0  0  0  0  0
   18.8690   68.3860   27.4270 C   0  0  0  0  0
   18.1000   67.7630   25.1080 C   0  0  0  0  0
   15.8330   67.3840   27.0210 C   0  0  0  0  0
   12.5640   67.3620   26.1020 C   0  0  0  0  0
   12.6636   67.4239   28.2668 H   0  0  0  0  0
   14.1506   69.5256   26.6149 H   0  0  0  0  0
   12.5778   69.7560   27.4174 H   0  0  0  0  0
   14.0441   69.4892   28.3920 H   0  0  0  0  0
   13.6369   65.3058   28.6185 H   0  0  0  0  0
   16.4934   62.9170   28.8202 H   0  0  0  0  0
   14.3772   61.7685   29.2571 H   0  0  0  0  0
   13.4853   63.2891   29.0058 H   0  0  0  0  0
   14.3722   62.5432   27.6538 H   0  0  0  0  0
   14.7773   64.3646   30.9273 H   0  0  0  0  0
   15.6692   62.8440   31.1787 H   0  0  0  0  0
   16.5578   64.3622   30.9021 H   0  0  0  0  0
   18.4129   62.0851   27.3590 H   0  0  0  0  0
   17.9759   64.3954   25.4225 H   0  0  0  0  0
   20.0488   62.8641   25.1866 H   0  0  0  0  0
   19.0236   63.2874   23.7300 H   0  0  0  0  0
   20.2028   60.6163   26.0186 H   0  0  0  0  0
   19.5573   56.3059   24.5709 H   0  0  0  0  0
   20.5381   55.9315   25.9919 H   0  0  0  0  0
   20.8615   59.2856   27.0615 H   0  0  0  0  0
   21.2629   57.5944   27.3775 H   0  0  0  0  0
   18.5033   57.4244   23.6000 H   0  0  0  0  0
   17.3629   59.1056   22.1455 H   0  0  0  0  0
   17.6325   61.5522   22.6062 H   0  0  0  0  0
   16.5755   64.3403   22.6447 H   0  0  0  0  0
   17.0646   65.0427   24.2111 H   0  0  0  0  0
   15.2070   66.1887   22.5166 H   0  0  0  0  0
   15.2492   66.4601   24.2871 H   0  0  0  0  0
   13.9026   67.4378   22.2938 H   0  0  0  0  0
   12.1691   65.9799   20.2295 H   0  0  0  0  0
   13.9582   65.8634   20.3975 H   0  0  0  0  0
   13.2406   67.3955   18.5212 H   0  0  0  0  0
   14.2059   68.2099   19.7425 H   0  0  0  0  0
   12.1961   68.0815   17.3573 H   0  0  0  0  0
   10.6664   68.8348   16.8947 H   0  0  0  0  0
    9.8486   69.9497   20.1522 H   0  0  0  0  0
    9.3510   69.8814   18.4584 H   0  0  0  0  0
   11.1002   69.8912   21.3412 H   0  0  0  0  0
   12.8478   69.8167   21.5112 H   0  0  0  0  0
   11.8801   68.3832   23.2405 H   0  0  0  0  0
   10.8629   67.5355   22.0144 H   0  0  0  0  0
   12.3822   63.6477   24.1449 H   0  0  0  0  0
   13.3497   64.2426   25.4839 H   0  0  0  0  0
   14.2690   62.0478   24.9066 H   0  0  0  0  0
   14.2696   62.4118   23.2043 H   0  0  0  0  0
   19.0684   66.4254   26.5075 H   0  0  0  0  0
   18.1144   69.1697   27.4935 H   0  0  0  0  0
   19.0905   68.0074   28.4249 H   0  0  0  0  0
   19.7772   68.7913   26.9809 H   0  0  0  0  0
   17.7691   66.9452   24.4679 H   0  0  0  0  0
   17.3365   68.5406   25.1301 H   0  0  0  0  0
   19.0305   68.1766   24.7193 H   0  0  0  0  0
   15.8583   68.3452   26.5076 H   0  0  0  0  0
   13.2089   67.6109   25.2592 H   0  0  0  0  0
   12.3347   66.2966   26.0834 H   0  0  0  0  0
   11.6393   67.9352   26.0353 H   0  0  0  0  0
  1  2  1  0  0  0
  1  3  1  0  0  0
  1 49  1  0  0  0
  3  4  4  0  0  0
  3 48  4  0  0  0
  4  5  4  0  0  0
  5  6  1  0  0  0
  5  9  4  0  0  0
  6  7  1  0  0  0
  6  8  1  0  0  0
  9 10  1  0  0  0
  9 44  4  0  0  0
 10 11  1  0  0  0
 10 42  2  0  0  0
 10 43  2  0  0  0
 11 12  1  0  0  0
 12 13  1  0  0  0
 12 23  1  0  0  0
 13 14  1  0  0  0
 14 15  4  0  0  0
 14 22  4  0  0  0
 15 16  4  0  0  0
 16 17  1  0  0  0
 16 20  4  0  0  0
 17 18  1  0  0  0
 17 19  1  0  0  0
 20 21  4  0  0  0
 21 22  4  0  0  0
 23 24  1  0  0  0
 23 41  2  0  0  0
 24 25  1  0  0  0
 24 40  1  0  0  0
 25 26  1  0  0  0
 26 27  1  0  0  0
 27 28  1  0  0  0
 27 39  1  0  0  0
 28 29  1  0  0  0
 28 38  2  0  0  0
 29 30  1  0  0  0
 29 37  1  0  0  0
 30 31  1  0  0  0
 31 32  1  0  0  0
 32 33  1  0  0  0
 32 36  1  0  0  0
 33 34  1  0  0  0
 33 35  1  0  0  0
 36 37  1  0  0  0
 39 40  1  0  0  0
 44 45  1  0  0  0
 44 48  4  0  0  0
 45 46  1  0  0  0
 45 47  1  0  0  0
  1 50  1  0  0  0
  2 51  1  0  0  0
  2 52  1  0  0  0
  2 53  1  0  0  0
  4 54  1  0  0  0
  6 55  1  0  0  0
  7 56  1  0  0  0
  7 57  1  0  0  0
  7 58  1  0  0  0
  8 59  1  0  0  0
  8 60  1  0  0  0
  8 61  1  0  0  0
 11 62  1  0  0  0
 12 63  1  0  0  0
 13 64  1  0  0  0
 13 65  1  0  0  0
 15 66  1  0  0  0
 18 67  1  0  0  0
 18 68  1  0  0  0
 19 69  1  0  0  0
 19 70  1  0  0  0
 20 71  1  0  0  0
 21 72  1  0  0  0
 22 73  1  0  0  0
 25 74  1  0  0  0
 25 75  1  0  0  0
 26 76  1  0  0  0
 26 77  1  0  0  0
 29 78  1  0  0  0
 30 79  1  0  0  0
 30 80  1  0  0  0
 31 81  1  0  0  0
 31 82  1  0  0  0
 34 83  1  0  0  0
 34 84  1  0  0  0
 35 85  1  0  0  0
 35 86  1  0  0  0
 36 87  1  0  0  0
 36 88  1  0  0  0
 37 89  1  0  0  0
 37 90  1  0  0  0
 39 91  1  0  0  0
 39 92  1  0  0  0
 40 93  1  0  0  0
 40 94  1  0  0  0
 45 95  1  0  0  0
 46 96  1  0  0  0
 46 97  1  0  0  0
 46 98  1  0  0  0
 47 99  1  0  0  0
 47100  1  0  0  0
 47101  1  0  0  0
 48102  1  0  0  0
 49103  1  0  0  0
 49104  1  0  0  0
 49105  1  0  0  0
M  END
$$$$
