1ado_ligand
  -I-interpret- 

 15 14  0  0  0  0  0  0  0  0999 V2000
   23.0580   27.2320   23.7810 P   0  0  0  0  0
   23.2740   25.7610   24.4310 O   0  5  0  0  0
   21.6730   26.9720   23.0650 O   0  5  0  0  0
   24.0790   27.5410   22.6520 O   0  0  0  0  0
   22.8890   28.5100   24.7710 O   0  0  0  0  0
   23.4170   29.8220   24.4360 C   0  0  0  0  0
   24.5750   30.2800   25.3010 C   0  0  0  0  0
   24.6250   29.9610   26.4860 O   0  0  0  0  0
   25.6620   31.1460   24.6940 C   0  0  0  0  0
   25.8750   30.7770   23.3430 O   0  0  0  0  0
   23.7693   29.8010   23.3942 H   0  0  0  0  0
   26.5718   31.3357   22.9621 H   0  0  0  0  0
   22.6097   30.5613   24.5441 H   0  0  0  0  0
   25.3573   32.2024   24.7286 H   0  0  0  0  0
   26.6005   31.0079   25.2508 H   0  0  0  0  0
  1  2  1  0  0  0
  1  3  1  0  0  0
  1  4  2  0  0  0
  5  1  1  0  0  0
  6 11  1  0  0  0
  5  6  1  0  0  0
  6  7  1  0  0  0
  7  8  2  0  0  0
  7  9  1  0  0  0
  9 10  1  0  0  0
 10 12  1  0  0  0
  6 13  1  0  0  0
  9 14  1  0  0  0
  9 15  1  0  0  0
M  END
$$$$
