### 
### Created by X-TOOL on Mon Oct 24 23:03:48 2005
### 

@<TRIPOS>MOLECULE
1ado_ligand
   15    14     1     0     0
SMALL
GAST_HUCK


@<TRIPOS>ATOM
      1 P          23.0580   27.2320   23.7810 P.3       1 SUB1        0.207
      2 O1P        23.2740   25.7610   24.4310 O.co2     1 SUB1       -0.535
      3 O2P        21.6730   26.9720   23.0650 O.co2     1 SUB1       -0.535
      4 O3P        24.0790   27.5410   22.6520 O.co2     1 SUB1       -0.535
      5 O1         22.8890   28.5100   24.7710 O.3       1 SUB1       -0.302
      6 C1         23.4170   29.8220   24.4360 C.3       1 SUB1        0.141
      7 C2         24.5750   30.2800   25.3010 C.2       1 SUB1        0.161
      8 O2         24.6250   29.9610   26.4860 O.2       1 SUB1       -0.386
      9 C3         25.6620   31.1460   24.6940 C.3       1 SUB1        0.120
     10 O3         25.8750   30.7770   23.3430 O.3       1 SUB1       -0.376
     11 H61        23.7693   29.8010   23.3942 H         1 SUB1        0.085
     12 H101       26.5718   31.3357   22.9621 H         1 SUB1        0.213
     13 H62        22.6097   30.5613   24.5441 H         1 SUB1        0.085
     14 H91        25.3573   32.2024   24.7286 H         1 SUB1        0.079
     15 H92        26.6005   31.0079   25.2508 H         1 SUB1        0.079
@<TRIPOS>BOND
     1    1    2 2  
     2    1    3 2  
     3    1    4 2  
     4    5    1 1  
     5    6   11 1  
     6    5    6 1  
     7    6    7 1  
     8    7    8 2  
     9    7    9 1  
    10    9   10 1  
    11   10   12 1  
    12    6   13 1  
    13    9   14 1  
    14    9   15 1  
@<TRIPOS>SUBSTRUCTURE
     1 SUB1        1 GROUP

