1lol_ligand
  -I-interpret- 

 35 37  0  0  0  0  0  0  0  0999 V2000
    3.2930   36.9480   44.6050 P   0  0  0  0  0
    4.1210   37.4900   43.5250 O   0  0  0  0  0
    2.0860   36.2280   44.0640 O   0  5  0  0  0
    2.7110   38.1380   45.5130 O   0  0  0  0  0
    4.1100   36.0550   45.5710 O   0  5  0  0  0
    2.5800   38.0430   46.9350 C   0  0  0  0  0
    1.9750   39.3120   47.4770 C   0  0  0  0  0
    2.9650   40.3480   47.1690 O   0  0  0  0  0
    2.2830   41.5810   46.8760 C   0  0  0  0  0
    2.8090   42.0620   45.5770 N   0  0  0  0  0
    3.5310   43.2280   45.4310 C   0  0  0  0  0
    3.8770   44.1200   46.4320 N   0  0  0  0  0
    4.9450   45.3310   44.6040 N   0  0  0  0  0
    4.5980   45.1710   45.9500 C   0  0  0  0  0
    5.0020   46.0670   46.6860 O   0  0  0  0  0
    4.5800   44.4020   43.5770 C   0  0  0  0  0
    4.9120   44.5960   42.4140 O   0  0  0  0  0
    3.8290   43.3050   44.0860 C   0  0  0  0  0
    3.3010   42.1990   43.3690 N   0  0  0  0  0
    2.7160   41.5120   44.3180 C   0  0  0  0  0
    0.7860   41.3190   46.9670 C   0  0  0  0  0
    0.2410   41.7550   48.2190 O   0  0  0  0  0
    0.6950   39.8280   46.8260 C   0  0  0  0  0
   -0.4780   39.3340   47.4510 O   0  0  0  0  0
    3.5726   37.8908   47.3840 H   0  0  0  0  0
    1.9296   37.1921   47.1859 H   0  0  0  0  0
    1.8135   39.2019   48.5595 H   0  0  0  0  0
    2.5346   42.3329   47.6384 H   0  0  0  0  0
    3.6276   44.0065   47.3937 H   0  0  0  0  0
    5.4765   46.1375   44.3452 H   0  0  0  0  0
    2.1971   40.5797   44.1267 H   0  0  0  0  0
    0.2527   41.8230   46.1475 H   0  0  0  0  0
   -0.6916   41.5749   48.2370 H   0  0  0  0  0
    0.6737   39.5444   45.7634 H   0  0  0  0  0
   -0.4600   39.5543   48.3749 H   0  0  0  0  0
  1  2  2  0  0  0
  1  3  1  0  0  0
  1  4  1  0  0  0
  1  5  1  0  0  0
  4  6  1  0  0  0
  6  7  1  0  0  0
  7  8  1  0  0  0
  7 23  1  0  0  0
  8  9  1  0  0  0
  9 10  1  0  0  0
  9 21  1  0  0  0
 10 11  4  0  0  0
 10 20  4  0  0  0
 11 12  1  0  0  0
 11 18  4  0  0  0
 12 14  1  0  0  0
 14 13  1  0  0  0
 13 16  1  0  0  0
 14 15  2  0  0  0
 16 17  2  0  0  0
 16 18  1  0  0  0
 18 19  4  0  0  0
 19 20  4  0  0  0
 21 22  1  0  0  0
 21 23  1  0  0  0
 23 24  1  0  0  0
  6 25  1  0  0  0
  6 26  1  0  0  0
  7 27  1  0  0  0
  9 28  1  0  0  0
 12 29  1  0  0  0
 13 30  1  0  0  0
 20 31  1  0  0  0
 21 32  1  0  0  0
 22 33  1  0  0  0
 23 34  1  0  0  0
 24 35  1  0  0  0
M  END
$$$$
