### 
### Created by X-TOOL on Tue Oct 25 02:21:53 2005
### 

@<TRIPOS>MOLECULE
1rd4_ligand
   60    63     1     0     0
SMALL
GAST_HUCK


@<TRIPOS>ATOM
      1 O4          1.2900   -2.5970   -7.0520 O.2       1 SUB1       -0.480
      2 N3          2.1560   -3.3810   -6.6930 N.2       1 SUB1       -0.187
      3 C11         2.0490   -4.7930   -6.9190 C.ar      1 SUB1        0.183
      4 C10         3.2290   -5.6870   -6.8610 C.ar      1 SUB1        0.191
      5 C15         3.0290   -7.1400   -7.1060 C.ar      1 SUB1        0.045
      6 C14         1.7440   -7.6970   -7.3920 C.ar      1 SUB1        0.022
      7 C13         0.5420   -6.8510   -7.4620 C.ar      1 SUB1        0.076
      8 C12         0.7080   -5.4240   -7.2260 C.ar      1 SUB1        0.052
      9 C16        -0.8090   -7.4930   -7.7630 C.ar      1 SUB1        0.059
     10 C8         -1.8870   -6.8010   -8.4730 C.ar      1 SUB1        0.002
     11 C35        -3.1120   -7.5340   -8.6790 C.ar      1 SUB1        0.034
     12 N20        -3.2810   -8.8940   -8.2060 N.ar      1 SUB1       -0.248
     13 C18        -2.3550   -9.5520   -7.5700 C.ar      1 SUB1        0.134
     14 N1         -2.5200  -10.9030   -7.0870 N.3       1 SUB1       -0.226
     15 C19        -3.3020  -10.9870   -5.8640 C.3       1 SUB1        0.043
     16 C20        -4.4140  -11.9630   -6.0920 C.3       1 SUB1        0.051
     17 N2         -3.8490  -13.2460   -6.6620 N.am      1 SUB1       -0.270
     18 C21        -3.0620  -13.1090   -7.9650 C.3       1 SUB1        0.051
     19 C22        -1.8990  -12.0360   -7.7940 C.3       1 SUB1        0.043
     20 C23        -4.8970  -14.1930   -6.8720 C.2       1 SUB1        0.176
     21 O2         -4.8900  -15.3210   -6.2920 O.2       1 SUB1       -0.397
     22 C24        -6.0830  -13.8610   -7.8060 C.3       1 SUB1        0.026
     23 C17        -1.0190   -8.8550   -7.3070 C.ar      1 SUB1        0.022
     24 S1          4.8690   -4.9790   -6.4930 S.3       1 SUB1        0.141
     25 C1          5.7700   -6.2980   -5.7880 C.ar      1 SUB1        0.205
     26 C2          6.4440   -7.2730   -6.6970 C.ar      1 SUB1        0.225
     27 C3          7.2100   -8.3940   -6.0690 C.ar      1 SUB1        0.041
     28 C4          7.2680   -8.4940   -4.5780 C.ar      1 SUB1       -0.011
     29 C5          6.5730   -7.4950   -3.7130 C.ar      1 SUB1       -0.011
     30 C6          5.8320   -6.4070   -4.3180 C.ar      1 SUB1        0.028
     31 O7          6.3070   -7.0690   -8.1490 O.3       1 SUB1       -0.250
     32 C9          6.3690   -8.2120   -9.1060 C.3       1 SUB1        0.093
     33 C33         5.8060   -7.7280  -10.4700 C.3       1 SUB1       -0.032
     34 O3          3.1160   -2.8290   -6.1130 O.2       1 SUB1       -0.480
     35 H51         3.8880   -7.8001   -7.0663 H         1 SUB1        0.095
     36 H61         1.6532   -8.7639   -7.5607 H         1 SUB1        0.095
     37 H81        -0.1669   -4.7857   -7.2722 H         1 SUB1        0.099
     38 H101       -1.7695   -5.7835   -8.8278 H         1 SUB1        0.088
     39 H111       -3.9305   -7.0538   -9.2030 H         1 SUB1        0.088
     40 H151       -3.7175   -9.9987   -5.6179 H         1 SUB1        0.051
     41 H152       -2.6651  -11.3334   -5.0367 H         1 SUB1        0.051
     42 H161       -5.1385  -11.5348   -6.8003 H         1 SUB1        0.054
     43 H162       -4.9167  -12.1760   -5.1371 H         1 SUB1        0.054
     44 H181       -3.7409  -12.7843   -8.7672 H         1 SUB1        0.054
     45 H182       -2.6225  -14.0824   -8.2282 H         1 SUB1        0.054
     46 H191       -1.0723  -12.4544   -7.2011 H         1 SUB1        0.051
     47 H192       -1.5209  -11.7171   -8.7765 H         1 SUB1        0.051
     48 H221       -6.7776  -14.7135   -7.8337 H         1 SUB1        0.047
     49 H222       -5.7065  -13.6618   -8.8202 H         1 SUB1        0.047
     50 H223       -6.6090  -12.9716   -7.4288 H         1 SUB1        0.047
     51 H231       -0.2292   -9.3781   -6.7802 H         1 SUB1        0.076
     52 H271        7.7172   -9.1255   -6.6876 H         1 SUB1        0.073
     53 H281        7.8229   -9.3039   -4.1184 H         1 SUB1        0.098
     54 H291        6.6228   -7.5837   -2.6338 H         1 SUB1        0.091
     55 H301        5.3266   -5.6780   -3.6949 H         1 SUB1        0.077
     56 H321        5.7630   -9.0485   -8.7279 H         1 SUB1        0.067
     57 H322        7.4117   -8.5403   -9.2281 H         1 SUB1        0.067
     58 H331        5.8408   -8.5545  -11.1951 H         1 SUB1        0.026
     59 H332        6.4136   -6.8893  -10.8407 H         1 SUB1        0.026
     60 H333        4.7649   -7.3975  -10.3405 H         1 SUB1        0.026
@<TRIPOS>BOND
     1    1    2 2  
     2    2    3 1  
     3    2   34 2  
     4    3    4 ar 
     5    3    8 ar 
     6    4    5 ar 
     7    4   24 1  
     8    5    6 ar 
     9    6    7 ar 
    10    7    8 ar 
    11    7    9 1  
    12    9   10 ar 
    13    9   23 ar 
    14   10   11 ar 
    15   11   12 ar 
    16   12   13 ar 
    17   13   14 1  
    18   13   23 ar 
    19   14   15 1  
    20   14   19 1  
    21   15   16 1  
    22   16   17 1  
    23   17   18 1  
    24   17   20 am 
    25   18   19 1  
    26   20   21 2  
    27   20   22 1  
    28   24   25 1  
    29   25   26 ar 
    30   25   30 ar 
    31   26   27 ar 
    32   26   31 1  
    33   27   28 ar 
    34   28   29 ar 
    35   29   30 ar 
    36   31   32 1  
    37   32   33 1  
    38    5   35 1  
    39    6   36 1  
    40    8   37 1  
    41   10   38 1  
    42   11   39 1  
    43   15   40 1  
    44   15   41 1  
    45   16   42 1  
    46   16   43 1  
    47   18   44 1  
    48   18   45 1  
    49   19   46 1  
    50   19   47 1  
    51   22   48 1  
    52   22   49 1  
    53   22   50 1  
    54   23   51 1  
    55   27   52 1  
    56   28   53 1  
    57   29   54 1  
    58   30   55 1  
    59   32   56 1  
    60   32   57 1  
    61   33   58 1  
    62   33   59 1  
    63   33   60 1  
@<TRIPOS>SUBSTRUCTURE
     1 SUB1        1 GROUP

