### 
### Created by X-TOOL on Mon Oct 24 22:06:15 2005
### 

@<TRIPOS>MOLECULE
1n1t_ligand
   36    36     1     0     0
SMALL
GAST_HUCK


@<TRIPOS>ATOM
      1 C1         26.7420   -4.0680    8.9050 C.2       1 SUB1        0.061
      2 C2         25.5060   -3.4670    8.5820 C.2       1 SUB1        0.094
      3 C3         25.3410   -2.0090    8.8180 C.2       1 SUB1       -0.016
      4 C4         24.0660   -1.4590    8.1740 C.3       1 SUB1        0.110
      5 C5         22.9720   -2.4970    8.1340 C.3       1 SUB1        0.110
      6 C6         23.5070   -3.7170    7.3940 C.3       1 SUB1        0.133
      7 C7         22.4930   -4.8490    7.2510 C.3       1 SUB1        0.115
      8 C8         23.1030   -6.0910    6.6280 C.3       1 SUB1        0.107
      9 C9         22.0640   -7.2190    6.5530 C.3       1 SUB1        0.073
     10 C10        20.5810   -2.1270    7.8090 C.2       1 SUB1        0.174
     11 C11        19.4610   -1.3550    7.1540 C.3       1 SUB1        0.026
     12 N5         21.8370   -1.8570    7.4870 N.am      1 SUB1       -0.276
     13 O1A        27.6530   -3.4570    9.7230 O.co2     1 SUB1       -0.572
     14 O1B        26.9930   -5.2630    8.4780 O.co2     1 SUB1       -0.572
     15 O4         23.6650   -0.2960    8.9060 O.3       1 SUB1       -0.375
     16 O6         24.6210   -4.2480    8.1060 O.3       1 SUB1       -0.320
     17 O7         21.9760   -5.2570    8.5200 O.3       1 SUB1       -0.386
     18 O8         23.5510   -5.7960    5.3040 O.3       1 SUB1       -0.387
     19 O9         20.9620   -6.9020    5.7290 O.3       1 SUB1       -0.392
     20 O10        20.2520   -3.1040    8.7160 O.2       1 SUB1       -0.397
     21 H31        26.0460   -1.4019    9.3839 H         1 SUB1        0.061
     22 H41        24.2889   -1.1501    7.1421 H         1 SUB1        0.081
     23 H51        22.6734   -2.7917    9.1508 H         1 SUB1        0.064
     24 H61        23.8392   -3.4031    6.3935 H         1 SUB1        0.069
     25 H71        21.6584   -4.4948    6.6282 H         1 SUB1        0.065
     26 H81        23.9644   -6.4184    7.2286 H         1 SUB1        0.064
     27 H91        22.5447   -8.1204    6.1451 H         1 SUB1        0.058
     28 H92        21.6839   -7.4219    7.5650 H         1 SUB1        0.058
     29 H111       18.4992   -1.7177    7.5456 H         1 SUB1        0.047
     30 H112       19.5598   -0.2837    7.3830 H         1 SUB1        0.047
     31 H113       19.4855   -1.5096    6.0652 H         1 SUB1        0.047
     32 H121       22.0127   -1.1843    6.7682 H         1 SUB1        0.186
     33 H151       24.3757    0.3345    8.9108 H         1 SUB1        0.214
     34 H171       21.5802   -4.5105    8.9543 H         1 SUB1        0.210
     35 H181       22.8116   -5.5210    4.7746 H         1 SUB1        0.210
     36 H191       21.2672   -6.7315    4.8456 H         1 SUB1        0.209
@<TRIPOS>BOND
     1    2    1 1  
     2    1   13 2  
     3    1   14 2  
     4    3    2 2  
     5   16    2 1  
     6    4    3 1  
     7    5    4 1  
     8    4   15 1  
     9    5    6 1  
    10   12    5 1  
    11    6    7 1  
    12    6   16 1  
    13    7    8 1  
    14    7   17 1  
    15    8    9 1  
    16    8   18 1  
    17    9   19 1  
    18   10   11 1  
    19   12   10 am 
    20   10   20 2  
    21    3   21 1  
    22    4   22 1  
    23    5   23 1  
    24    6   24 1  
    25    7   25 1  
    26    8   26 1  
    27    9   27 1  
    28    9   28 1  
    29   11   29 1  
    30   11   30 1  
    31   11   31 1  
    32   12   32 1  
    33   15   33 1  
    34   17   34 1  
    35   18   35 1  
    36   19   36 1  
@<TRIPOS>SUBSTRUCTURE
     1 SUB1        1 GROUP

