1n1t_ligand
  -I-interpret- 

 36 36  0  0  0  0  0  0  0  0999 V2000
   26.7420   -4.0680    8.9050 C   0  0  0  0  0
   25.5060   -3.4670    8.5820 C   0  0  0  0  0
   25.3410   -2.0090    8.8180 C   0  0  0  0  0
   24.0660   -1.4590    8.1740 C   0  0  0  0  0
   22.9720   -2.4970    8.1340 C   0  0  0  0  0
   23.5070   -3.7170    7.3940 C   0  0  0  0  0
   22.4930   -4.8490    7.2510 C   0  0  0  0  0
   23.1030   -6.0910    6.6280 C   0  0  0  0  0
   22.0640   -7.2190    6.5530 C   0  0  0  0  0
   20.5810   -2.1270    7.8090 C   0  0  0  0  0
   19.4610   -1.3550    7.1540 C   0  0  0  0  0
   21.8370   -1.8570    7.4870 N   0  0  0  0  0
   27.6530   -3.4570    9.7230 O   0  5  0  0  0
   26.9930   -5.2630    8.4780 O   0  0  0  0  0
   23.6650   -0.2960    8.9060 O   0  0  0  0  0
   24.6210   -4.2480    8.1060 O   0  0  0  0  0
   21.9760   -5.2570    8.5200 O   0  0  0  0  0
   23.5510   -5.7960    5.3040 O   0  0  0  0  0
   20.9620   -6.9020    5.7290 O   0  0  0  0  0
   20.2520   -3.1040    8.7160 O   0  0  0  0  0
   26.0460   -1.4019    9.3839 H   0  0  0  0  0
   24.2889   -1.1501    7.1421 H   0  0  0  0  0
   22.6734   -2.7917    9.1508 H   0  0  0  0  0
   23.8392   -3.4031    6.3935 H   0  0  0  0  0
   21.6584   -4.4948    6.6282 H   0  0  0  0  0
   23.9644   -6.4184    7.2286 H   0  0  0  0  0
   22.5447   -8.1204    6.1451 H   0  0  0  0  0
   21.6839   -7.4219    7.5650 H   0  0  0  0  0
   18.4992   -1.7177    7.5456 H   0  0  0  0  0
   19.5598   -0.2837    7.3830 H   0  0  0  0  0
   19.4855   -1.5096    6.0652 H   0  0  0  0  0
   22.0127   -1.1843    6.7682 H   0  0  0  0  0
   24.3757    0.3345    8.9108 H   0  0  0  0  0
   21.5802   -4.5105    8.9543 H   0  0  0  0  0
   22.8116   -5.5210    4.7746 H   0  0  0  0  0
   21.2672   -6.7315    4.8456 H   0  0  0  0  0
  2  1  1  0  0  0
  1 13  1  0  0  0
  1 14  2  0  0  0
  3  2  2  0  0  0
 16  2  1  0  0  0
  4  3  1  0  0  0
  5  4  1  0  0  0
  4 15  1  0  0  0
  5  6  1  0  0  0
 12  5  1  0  0  0
  6  7  1  0  0  0
  6 16  1  0  0  0
  7  8  1  0  0  0
  7 17  1  0  0  0
  8  9  1  0  0  0
  8 18  1  0  0  0
  9 19  1  0  0  0
 10 11  1  0  0  0
 12 10  1  0  0  0
 10 20  2  0  0  0
  3 21  1  0  0  0
  4 22  1  0  0  0
  5 23  1  0  0  0
  6 24  1  0  0  0
  7 25  1  0  0  0
  8 26  1  0  0  0
  9 27  1  0  0  0
  9 28  1  0  0  0
 11 29  1  0  0  0
 11 30  1  0  0  0
 11 31  1  0  0  0
 12 32  1  0  0  0
 15 33  1  0  0  0
 17 34  1  0  0  0
 18 35  1  0  0  0
 19 36  1  0  0  0
M  END
$$$$
