1b52_ligand
  -I-interpret- 

 61 60  0  0  0  0  0  0  0  0999 V2000
    8.5460   31.6430   12.5700 N   0  3  0  0  0
    8.6540   33.0990   12.8650 C   0  0  0  0  0
    9.6220   33.8570   11.9360 C   0  0  0  0  0
   10.6870   33.3830   11.4410 O   0  0  0  0  0
    8.9700   33.3030   14.3830 C   0  0  0  0  0
   10.3210   32.7220   14.7820 C   0  0  0  0  0
   10.6790   32.8080   16.2700 C   0  0  0  0  0
    9.8270   31.9030   17.1300 C   0  0  0  0  0
   10.2280   30.4530   16.9580 N   0  3  0  0  0
    9.2240   35.1250   11.7480 N   0  0  0  0  0
    9.9110   35.9830   10.8200 C   0  0  0  0  0
   11.1750   36.5860   11.4360 C   0  0  0  0  0
   11.0840   37.1320   12.5030 O   0  0  0  0  0
    9.0780   37.1370   10.2500 C   0  0  0  0  0
    8.4520   37.8700   11.3030 O   0  0  0  0  0
    7.9720   36.6750    9.3020 C   0  0  0  0  0
   12.2760   36.5670   10.7210 N   0  0  0  0  0
   13.4830   37.2390   11.1340 C   0  0  0  0  0
   13.8510   38.3120   10.1360 C   0  0  0  0  0
   14.6420   39.2030   10.4880 O   0  5  0  0  0
   14.7040   36.3080   11.2360 C   0  0  0  0  0
   15.6240   36.7990   12.3910 C   0  0  0  0  0
   16.8680   35.9170   12.3510 C   0  0  0  0  0
   17.8000   36.0860   13.5760 C   0  0  0  0  0
   17.8600   37.5350   13.9730 N   0  3  0  0  0
   13.5510   38.2660    8.9650 O   0  0  0  0  0
    9.1711   31.4058   11.8157 H   0  0  0  0  0
    7.6593   33.5327   12.6850 H   0  0  0  0  0
    8.1854   32.8102   14.9758 H   0  0  0  0  0
    8.9716   34.3812   14.6011 H   0  0  0  0  0
   11.0977   33.2591   14.2179 H   0  0  0  0  0
   10.3281   31.6600   14.4954 H   0  0  0  0  0
   10.5390   33.8461   16.6059 H   0  0  0  0  0
   11.7336   32.5213   16.3951 H   0  0  0  0  0
    8.7723   32.0209   16.8408 H   0  0  0  0  0
    9.9519   32.1877   18.1851 H   0  0  0  0  0
   10.1029   30.1817   15.9953 H   0  0  0  0  0
    9.6523   29.8729   17.5480 H   0  0  0  0  0
   11.1957   30.3391   17.2162 H   0  0  0  0  0
    8.4403   35.4776   12.2593 H   0  0  0  0  0
   10.2136   35.3490    9.9736 H   0  0  0  0  0
    9.7563   37.8048    9.6987 H   0  0  0  0  0
    9.1139   38.1733   11.9132 H   0  0  0  0  0
    7.0723   37.2871    9.4624 H   0  0  0  0  0
    7.7369   35.6188    9.4999 H   0  0  0  0  0
    8.3107   36.7865    8.2614 H   0  0  0  0  0
   12.2775   36.0664    9.8553 H   0  0  0  0  0
   13.3007   37.6967   12.1175 H   0  0  0  0  0
   15.2615   36.3265   10.2879 H   0  0  0  0  0
   14.3681   35.2814   11.4438 H   0  0  0  0  0
   15.1115   36.6912   13.3583 H   0  0  0  0  0
   15.8990   37.8529   12.2372 H   0  0  0  0  0
   17.4395   36.1660   11.4447 H   0  0  0  0  0
   16.5457   34.8663   12.3040 H   0  0  0  0  0
   18.8103   35.7359   13.3176 H   0  0  0  0  0
   17.4102   35.4928   14.4163 H   0  0  0  0  0
   18.2268   38.0782   13.2072 H   0  0  0  0  0
   18.4600   37.6388   14.7763 H   0  0  0  0  0
   16.9334   37.8594   14.2016 H   0  0  0  0  0
    7.5991   31.4235   12.3032 H   0  0  0  0  0
    8.7948   31.1144   13.3914 H   0  0  0  0  0
  2  1  1  0  0  0
  2  5  1  0  0  0
  3  2  1  0  0  0
  3  4  2  0  0  0
  5  6  1  0  0  0
  6  7  1  0  0  0
  7  8  1  0  0  0
  8  9  1  0  0  0
 11 10  1  0  0  0
 11 14  1  0  0  0
 12 11  1  0  0  0
 12 13  2  0  0  0
 14 16  1  0  0  0
 14 15  1  0  0  0
 10  3  1  0  0  0
 17 18  1  0  0  0
 18 21  1  0  0  0
 18 19  1  0  0  0
 19 20  1  0  0  0
 19 26  2  0  0  0
 21 22  1  0  0  0
 22 23  1  0  0  0
 23 24  1  0  0  0
 24 25  1  0  0  0
 12 17  1  0  0  0
  1 27  1  0  0  0
  2 28  1  0  0  0
  5 29  1  0  0  0
  5 30  1  0  0  0
  6 31  1  0  0  0
  6 32  1  0  0  0
  7 33  1  0  0  0
  7 34  1  0  0  0
  8 35  1  0  0  0
  8 36  1  0  0  0
  9 37  1  0  0  0
  9 38  1  0  0  0
  9 39  1  0  0  0
 10 40  1  0  0  0
 11 41  1  0  0  0
 14 42  1  0  0  0
 15 43  1  0  0  0
 16 44  1  0  0  0
 16 45  1  0  0  0
 16 46  1  0  0  0
 17 47  1  0  0  0
 18 48  1  0  0  0
 21 49  1  0  0  0
 21 50  1  0  0  0
 22 51  1  0  0  0
 22 52  1  0  0  0
 23 53  1  0  0  0
 23 54  1  0  0  0
 24 55  1  0  0  0
 24 56  1  0  0  0
 25 57  1  0  0  0
 25 58  1  0  0  0
 25 59  1  0  0  0
  1 60  1  0  0  0
  1 61  1  0  0  0
M  END
$$$$
