### 
### Created by X-TOOL on Tue Oct 25 01:53:18 2005
### 

@<TRIPOS>MOLECULE
1b52_ligand
   61    60     1     0     0
SMALL
GAST_HUCK


@<TRIPOS>ATOM
      1 N           8.5460   31.6430   12.5700 N.4       1 SUB1        0.238
      2 CA          8.6540   33.0990   12.8650 C.3       1 SUB1        0.065
      3 C           9.6220   33.8570   11.9360 C.2       1 SUB1        0.227
      4 O          10.6870   33.3830   11.4410 O.2       1 SUB1       -0.391
      5 CB          8.9700   33.3030   14.3830 C.3       1 SUB1        0.008
      6 CG         10.3210   32.7220   14.7820 C.3       1 SUB1       -0.041
      7 CD         10.6790   32.8080   16.2700 C.3       1 SUB1       -0.012
      8 CE          9.8270   31.9030   17.1300 C.3       1 SUB1       -0.035
      9 NZ         10.2280   30.4530   16.9580 N.4       1 SUB1        0.219
     10 N           9.2240   35.1250   11.7480 N.am      1 SUB1       -0.259
     11 CA          9.9110   35.9830   10.8200 C.3       1 SUB1        0.157
     12 C          11.1750   36.5860   11.4360 C.2       1 SUB1        0.207
     13 O          11.0840   37.1320   12.5030 O.2       1 SUB1       -0.394
     14 CB          9.0780   37.1370   10.2500 C.3       1 SUB1        0.092
     15 OG1         8.4520   37.8700   11.3030 O.3       1 SUB1       -0.387
     16 CG2         7.9720   36.6750    9.3020 C.3       1 SUB1       -0.035
     17 N          12.2760   36.5670   10.7210 N.am      1 SUB1       -0.268
     18 CA         13.4830   37.2390   11.1340 C.3       1 SUB1        0.081
     19 C          13.8510   38.3120   10.1360 C.2       1 SUB1        0.053
     20 O          14.6420   39.2030   10.4880 O.co2     1 SUB1       -0.564
     21 CB         14.7040   36.3080   11.2360 C.3       1 SUB1       -0.018
     22 CG         15.6240   36.7990   12.3910 C.3       1 SUB1       -0.043
     23 CD         16.8680   35.9170   12.3510 C.3       1 SUB1       -0.012
     24 CE         17.8000   36.0860   13.5760 C.3       1 SUB1       -0.035
     25 NZ         17.8600   37.5350   13.9730 N.4       1 SUB1        0.219
     26 OXT        13.5510   38.2660    8.9650 O.co2     1 SUB1       -0.564
     27 H11         9.1711   31.4058   11.8157 H         1 SUB1        0.201
     28 H21         7.6593   33.5327   12.6850 H         1 SUB1        0.110
     29 H51         8.1854   32.8102   14.9758 H         1 SUB1        0.035
     30 H52         8.9716   34.3812   14.6011 H         1 SUB1        0.035
     31 H61        11.0977   33.2591   14.2179 H         1 SUB1        0.027
     32 H62        10.3281   31.6600   14.4954 H         1 SUB1        0.027
     33 H71        10.5390   33.8461   16.6059 H         1 SUB1        0.032
     34 H72        11.7336   32.5213   16.3951 H         1 SUB1        0.032
     35 H81         8.7723   32.0209   16.8408 H         1 SUB1        0.081
     36 H82         9.9519   32.1877   18.1851 H         1 SUB1        0.081
     37 H91        10.1029   30.1817   15.9953 H         1 SUB1        0.199
     38 H92         9.6523   29.8729   17.5480 H         1 SUB1        0.199
     39 H93        11.1957   30.3391   17.2162 H         1 SUB1        0.199
     40 H101        8.4403   35.4776   12.2593 H         1 SUB1        0.189
     41 H111       10.2136   35.3490    9.9736 H         1 SUB1        0.083
     42 H141        9.7563   37.8048    9.6987 H         1 SUB1        0.064
     43 H151        9.1139   38.1733   11.9132 H         1 SUB1        0.210
     44 H161        7.0723   37.2871    9.4624 H         1 SUB1        0.026
     45 H162        7.7369   35.6188    9.4999 H         1 SUB1        0.026
     46 H163        8.3107   36.7865    8.2614 H         1 SUB1        0.026
     47 H171       12.2775   36.0664    9.8553 H         1 SUB1        0.190
     48 H181       13.3007   37.6967   12.1175 H         1 SUB1        0.078
     49 H211       15.2615   36.3265   10.2879 H         1 SUB1        0.032
     50 H212       14.3681   35.2814   11.4438 H         1 SUB1        0.032
     51 H221       15.1115   36.6912   13.3583 H         1 SUB1        0.027
     52 H222       15.8990   37.8529   12.2372 H         1 SUB1        0.027
     53 H231       17.4395   36.1660   11.4447 H         1 SUB1        0.032
     54 H232       16.5457   34.8663   12.3040 H         1 SUB1        0.032
     55 H241       18.8103   35.7359   13.3176 H         1 SUB1        0.081
     56 H242       17.4102   35.4928   14.4163 H         1 SUB1        0.081
     57 H251       18.2268   38.0782   13.2072 H         1 SUB1        0.199
     58 H252       18.4600   37.6388   14.7763 H         1 SUB1        0.199
     59 H253       16.9334   37.8594   14.2016 H         1 SUB1        0.199
     60 H12         7.5991   31.4235   12.3032 H         1 SUB1        0.201
     61 H13         8.7948   31.1144   13.3914 H         1 SUB1        0.201
@<TRIPOS>BOND
     1    2    1 1  
     2    2    5 1  
     3    3    2 1  
     4    3    4 2  
     5    5    6 1  
     6    6    7 1  
     7    7    8 1  
     8    8    9 1  
     9   11   10 1  
    10   11   14 1  
    11   12   11 1  
    12   12   13 2  
    13   14   16 1  
    14   14   15 1  
    15   10    3 am 
    16   17   18 1  
    17   18   21 1  
    18   18   19 1  
    19   19   20 2  
    20   19   26 2  
    21   21   22 1  
    22   22   23 1  
    23   23   24 1  
    24   24   25 1  
    25   12   17 am 
    26    1   27 1  
    27    2   28 1  
    28    5   29 1  
    29    5   30 1  
    30    6   31 1  
    31    6   32 1  
    32    7   33 1  
    33    7   34 1  
    34    8   35 1  
    35    8   36 1  
    36    9   37 1  
    37    9   38 1  
    38    9   39 1  
    39   10   40 1  
    40   11   41 1  
    41   14   42 1  
    42   15   43 1  
    43   16   44 1  
    44   16   45 1  
    45   16   46 1  
    46   17   47 1  
    47   18   48 1  
    48   21   49 1  
    49   21   50 1  
    50   22   51 1  
    51   22   52 1  
    52   23   53 1  
    53   23   54 1  
    54   24   55 1  
    55   24   56 1  
    56   25   57 1  
    57   25   58 1  
    58   25   59 1  
    59    1   60 1  
    60    1   61 1  
@<TRIPOS>SUBSTRUCTURE
     1 SUB1        1 GROUP

