1cps_ligand
  -I-interpret- 

 31 31  0  0  0  0  0  0  0  0999 V2000
   -3.6961   31.3914   -6.6126 H   0  0  0  0  0
   -1.9102   31.4837   -6.4426 H   0  0  0  0  0
   -3.1631   28.9619   -7.9967 H   0  0  0  0  0
   -2.3627   32.0583   -8.7429 H   0  0  0  0  0
   -4.0407   31.4337   -8.8880 H   0  0  0  0  0
   -4.8614   29.8617  -10.8168 H   0  0  0  0  0
   -0.3694   30.9108  -10.1969 H   0  0  0  0  0
   -3.9448   28.6867  -13.1584 H   0  0  0  0  0
    0.2491   29.6235  -12.6506 H   0  0  0  0  0
   -1.9615   28.6798  -13.7791 H   0  0  0  0  0
   -4.0102   27.7470   -5.0340 H   0  0  0  0  0
   -1.2906   28.6647   -3.9475 H   0  0  0  0  0
   -3.6940   29.9010   -3.0080 H   0  0  0  0  0
   -4.6443   30.8560   -4.1960 H   0  0  0  0  0
   -3.0518   31.4606   -3.6261 H   0  0  0  0  0
   -2.7680   30.8040   -6.5530 C   0  0  0  0  0
   -2.5920   29.8980   -7.9100 C   0  0  0  0  0
   -0.9190   29.7770   -8.0510 C   0  0  0  0  0
   -0.1400   30.8640   -7.6760 O   0  5  0  0  0
   -2.9750   31.1660   -8.9400 C   0  0  0  0  0
   -2.5800   30.4420  -10.3910 C   0  0  0  0  0
   -3.8270   29.8380  -11.1400 C   0  0  0  0  0
   -1.1290   30.4420  -10.8120 C   0  0  0  0  0
   -3.2370   29.1730  -12.4970 C   0  0  0  0  0
   -0.7400   29.7170  -12.2170 C   0  0  0  0  0
   -2.1080   29.1730  -12.8250 C   0  0  0  0  0
   -0.6000   28.5690   -8.5190 O   0  0  0  0  0
   -2.8410   29.7170   -5.1960 S   0  0  0  0  0
   -3.8140   28.5090   -5.6640 N   0  0  0  0  0
   -1.4020   29.2940   -4.7270 N   0  0  0  0  0
   -3.6310   30.5620   -3.8850 C   0  0  0  0  0
 16  1  1  0  0  0
 16  2  1  0  0  0
 17  3  1  0  0  0
 20  4  1  0  0  0
 20  5  1  0  0  0
 22  6  1  0  0  0
 23  7  1  0  0  0
 24  8  1  0  0  0
 25  9  1  0  0  0
 26 10  1  0  0  0
 29 11  1  0  0  0
 30 12  1  0  0  0
 31 13  1  0  0  0
 31 14  1  0  0  0
 31 15  1  0  0  0
 16 17  1  0  0  0
 28 16  1  0  0  0
 17 18  1  0  0  0
 17 20  1  0  0  0
 18 19  1  0  0  0
 18 27  2  0  0  0
 20 21  1  0  0  0
 21 22  4  0  0  0
 21 23  4  0  0  0
 22 24  4  0  0  0
 23 25  4  0  0  0
 24 26  4  0  0  0
 25 26  4  0  0  0
 28 29  1  0  0  0
 28 30  1  0  0  0
 28 31  1  0  0  0
M  END
$$$$
