2f7o_ligand
  -I-interpret- 

 25 25  0  0  0  0  0  0  0  0999 V2000
   31.3190   65.8770    9.4500 C   0  0  0  0  0
   31.1480   64.5080    9.9440 N   0  3  0  0  0
   32.8010   66.1880    9.5120 C   0  0  0  0  0
   33.6220   65.0880    9.9130 O   0  0  0  0  0
   33.0740   66.7150    8.0990 C   0  0  0  0  0
   33.8360   65.8240    7.2910 O   0  0  0  0  0
   31.7990   67.0490    7.3310 C   0  0  0  0  0
   31.7660   67.2890    5.9230 O   0  0  0  0  0
   30.9360   65.9490    7.9790 C   0  0  0  0  0
   29.2320   66.5180    8.0170 S   0  0  0  0  0
   28.4200   65.3730    9.1430 C   0  0  0  0  0
   30.7081   66.5603   10.0400 H   0  0  0  0  0
   31.4067   64.4688   10.9299 H   0  0  0  0  0
   30.1732   64.2280    9.8356 H   0  0  0  0  0
   31.7455   63.8777    9.4091 H   0  0  0  0  0
   33.0582   66.9068   10.2900 H   0  0  0  0  0
   33.5138   64.3656    9.2901 H   0  0  0  0  0
   33.6521   67.6214    8.2789 H   0  0  0  0  0
   33.9693   66.2145    6.4242 H   0  0  0  0  0
   31.4580   68.0810    7.4141 H   0  0  0  0  0
   30.8647   67.4796    5.6530 H   0  0  0  0  0
   31.0662   65.0117    7.4381 H   0  0  0  0  0
   28.5074   64.3588    8.7533 H   0  0  0  0  0
   28.8955   65.4297   10.1222 H   0  0  0  0  0
   27.3669   65.6394    9.2331 H   0  0  0  0  0
  1  2  1  0  0  0
  1  3  1  0  0  0
  1  9  1  0  0  0
  3  4  1  0  0  0
  3  5  1  0  0  0
  5  6  1  0  0  0
  5  7  1  0  0  0
  7  8  1  0  0  0
  7  9  1  0  0  0
  9 10  1  0  0  0
 10 11  1  0  0  0
  1 12  1  0  0  0
  2 13  1  0  0  0
  2 14  1  0  0  0
  2 15  1  0  0  0
  3 16  1  0  0  0
  4 17  1  0  0  0
  5 18  1  0  0  0
  6 19  1  0  0  0
  7 20  1  0  0  0
  8 21  1  0  0  0
  9 22  1  0  0  0
 11 23  1  0  0  0
 11 24  1  0  0  0
 11 25  1  0  0  0
M  END
$$$$
