### 
### Created by X-TOOL on Sun Jun  3 12:17:10 2007
### 

@<TRIPOS>MOLECULE
2f7o_ligand
   25    25     1     0     0
SMALL
GAST_HUCK


@<TRIPOS>ATOM
      1 C5         31.3190   65.8770    9.4500 C.3       1 SUB1        0.019
      2 N5         31.1480   64.5080    9.9440 N.4       1 SUB1        0.223
      3 C4         32.8010   66.1880    9.5120 C.3       1 SUB1        0.127
      4 O4         33.6220   65.0880    9.9130 O.3       1 SUB1       -0.384
      5 C3         33.0740   66.7150    8.0990 C.3       1 SUB1        0.113
      6 O3         33.8360   65.8240    7.2910 O.3       1 SUB1       -0.386
      7 C2         31.7990   67.0490    7.3310 C.3       1 SUB1        0.101
      8 O2         31.7660   67.2890    5.9230 O.3       1 SUB1       -0.388
      9 C1         30.9360   65.9490    7.9790 C.3       1 SUB1        0.078
     10 S6         29.2320   66.5180    8.0170 S.3       1 SUB1       -0.152
     11 C7         28.4200   65.3730    9.1430 C.3       1 SUB1       -0.018
     12 H          30.7081   66.5603   10.0400 H         1 SUB1        0.089
     13 H          31.4067   64.4688   10.9299 H         1 SUB1        0.200
     14 H          30.1732   64.2280    9.8356 H         1 SUB1        0.200
     15 H          31.7455   63.8777    9.4091 H         1 SUB1        0.200
     16 H          33.0582   66.9068   10.2900 H         1 SUB1        0.068
     17 H          33.5138   64.3656    9.2901 H         1 SUB1        0.210
     18 H          33.6521   67.6214    8.2789 H         1 SUB1        0.065
     19 H          33.9693   66.2145    6.4242 H         1 SUB1        0.210
     20 H          31.4580   68.0810    7.4141 H         1 SUB1        0.063
     21 H          30.8647   67.4796    5.6530 H         1 SUB1        0.210
     22 H          31.0662   65.0117    7.4381 H         1 SUB1        0.049
     23 H          28.5074   64.3588    8.7533 H         1 SUB1        0.034
     24 H          28.8955   65.4297   10.1222 H         1 SUB1        0.034
     25 H          27.3669   65.6394    9.2331 H         1 SUB1        0.034
@<TRIPOS>BOND
     1    1    2 1  
     2    1    3 1  
     3    1    9 1  
     4    3    4 1  
     5    3    5 1  
     6    5    6 1  
     7    5    7 1  
     8    7    8 1  
     9    7    9 1  
    10    9   10 1  
    11   10   11 1  
    12    1   12 1  
    13    2   13 1  
    14    2   14 1  
    15    2   15 1  
    16    3   16 1  
    17    4   17 1  
    18    5   18 1  
    19    6   19 1  
    20    7   20 1  
    21    8   21 1  
    22    9   22 1  
    23   11   23 1  
    24   11   24 1  
    25   11   25 1  
@<TRIPOS>SUBSTRUCTURE
     1 SUB1        1 GROUP

