2f6t_ligand
  -I-interpret- 

 48 49  0  0  0  0  0  0  0  0999 V2000
  -10.2890   46.9830   46.3080 O   0  0  0  0  0
   -9.1500   47.6340   46.9710 S   0  0  0  0  0
   -8.0610   46.6760   47.1530 O   0  0  0  0  0
   -8.7600   48.9290   46.3640 O   0  5  0  0  0
   -9.6980   48.0460   48.4440 N   0  0  0  0  0
  -10.2950   47.1330   49.2730 C   0  0  0  0  0
   -9.5240   46.3910   50.1720 C   0  0  0  0  0
  -11.6840   46.9590   49.2730 C   0  0  0  0  0
  -12.3190   46.0530   50.1310 C   0  0  0  0  0
  -13.8250   45.8760   50.1120 C   0  0  0  0  0
  -14.3710   45.3040   51.3590 N   0  0  0  0  0
  -15.6750   45.0640   51.4650 C   0  0  0  0  0
  -16.2550   44.5920   52.4330 O   0  0  0  0  0
  -16.3980   45.4300   50.2750 O   0  0  0  0  0
  -17.8140   45.4510   50.0410 C   0  0  0  0  0
  -18.0090   45.6610   48.5410 C   0  0  0  0  0
  -18.4640   46.5780   50.8350 C   0  0  0  0  0
  -18.3630   44.0820   50.4060 C   0  0  0  0  0
  -13.4950   44.9840   52.4800 C   0  0  0  0  0
  -13.2760   46.1750   53.3680 C   0  0  0  0  0
  -12.4680   46.1370   54.2770 O   0  0  0  0  0
  -13.9980   47.2640   53.1280 N   0  0  0  0  0
  -13.8350   48.4550   53.9550 C   0  0  0  0  0
  -12.2180   44.3430   51.9280 C   0  0  0  0  0
  -11.5380   45.3190   50.9990 C   0  0  0  0  0
  -10.1510   45.4740   51.0300 C   0  0  0  0  0
   -9.5948   49.0103   48.7601 H   0  0  0  0  0
   -8.4426   46.5236   50.2066 H   0  0  0  0  0
  -12.2899   47.5471   48.5837 H   0  0  0  0  0
  -14.0616   45.1831   49.3045 H   0  0  0  0  0
  -14.2678   46.8639   49.9853 H   0  0  0  0  0
  -17.5529   46.6058   48.2454 H   0  0  0  0  0
  -17.5379   44.8426   47.9966 H   0  0  0  0  0
  -19.0749   45.6840   48.3142 H   0  0  0  0  0
  -18.2804   46.4243   51.8984 H   0  0  0  0  0
  -18.0371   47.5320   50.5254 H   0  0  0  0  0
  -19.5377   46.5808   50.6470 H   0  0  0  0  0
  -17.8868   43.3235   49.7847 H   0  0  0  0  0
  -18.1548   43.8766   51.4560 H   0  0  0  0  0
  -19.4399   44.0673   50.2382 H   0  0  0  0  0
  -13.9608   44.2534   53.1413 H   0  0  0  0  0
  -14.6704   47.2676   52.3610 H   0  0  0  0  0
  -14.0688   48.2110   54.9913 H   0  0  0  0  0
  -12.8051   48.8053   53.8863 H   0  0  0  0  0
  -14.5098   49.2353   53.6030 H   0  0  0  0  0
  -12.4701   43.4330   51.3835 H   0  0  0  0  0
  -11.5483   44.0920   52.7506 H   0  0  0  0  0
   -9.5532   44.8813   51.7224 H   0  0  0  0  0
  1  2  2  0  0  0
  2  3  2  0  0  0
  2  4  1  0  0  0
  2  5  1  0  0  0
  5  6  1  0  0  0
  6  7  4  0  0  0
  6  8  4  0  0  0
  7 26  4  0  0  0
  8  9  4  0  0  0
  9 10  1  0  0  0
  9 25  4  0  0  0
 10 11  1  0  0  0
 11 12  1  0  0  0
 11 19  1  0  0  0
 12 13  2  0  0  0
 12 14  1  0  0  0
 14 15  1  0  0  0
 15 16  1  0  0  0
 15 17  1  0  0  0
 15 18  1  0  0  0
 19 20  1  0  0  0
 19 24  1  0  0  0
 20 21  2  0  0  0
 20 22  1  0  0  0
 22 23  1  0  0  0
 24 25  1  0  0  0
 25 26  4  0  0  0
  5 27  1  0  0  0
  7 28  1  0  0  0
  8 29  1  0  0  0
 10 30  1  0  0  0
 10 31  1  0  0  0
 16 32  1  0  0  0
 16 33  1  0  0  0
 16 34  1  0  0  0
 17 35  1  0  0  0
 17 36  1  0  0  0
 17 37  1  0  0  0
 18 38  1  0  0  0
 18 39  1  0  0  0
 18 40  1  0  0  0
 19 41  1  0  0  0
 22 42  1  0  0  0
 23 43  1  0  0  0
 23 44  1  0  0  0
 23 45  1  0  0  0
 24 46  1  0  0  0
 24 47  1  0  0  0
 26 48  1  0  0  0
M  END
$$$$
