### 
### Created by X-TOOL on Sun Jun  3 11:23:17 2007
### 

@<TRIPOS>MOLECULE
2f6t_ligand
   48    49     1     0     0
SMALL
GAST_HUCK


@<TRIPOS>ATOM
      1 O6        -10.2890   46.9830   46.3080 O.2       1 SUB1       -0.108
      2 S1         -9.1500   47.6340   46.9710 S.o2      1 SUB1        0.261
      3 O4         -8.0610   46.6760   47.1530 O.2       1 SUB1       -0.108
      4 O5         -8.7600   48.9290   46.3640 O.2       1 SUB1       -0.108
      5 N3         -9.6980   48.0460   48.4440 N.am      1 SUB1       -0.161
      6 C15       -10.2950   47.1330   49.2730 C.ar      1 SUB1        0.052
      7 C16        -9.5240   46.3910   50.1720 C.ar      1 SUB1       -0.058
      8 C14       -11.6840   46.9590   49.2730 C.ar      1 SUB1       -0.049
      9 C13       -12.3190   46.0530   50.1310 C.ar      1 SUB1       -0.034
     10 C12       -13.8250   45.8760   50.1120 C.3       1 SUB1        0.067
     11 N2        -14.3710   45.3040   51.3590 N.am      1 SUB1       -0.216
     12 C7        -15.6750   45.0640   51.4650 C.2       1 SUB1        0.327
     13 O3        -16.2550   44.5920   52.4330 O.2       1 SUB1       -0.377
     14 O2        -16.3980   45.4300   50.2750 O.3       1 SUB1       -0.258
     15 C8        -17.8140   45.4510   50.0410 C.3       1 SUB1        0.090
     16 C11       -18.0090   45.6610   48.5410 C.3       1 SUB1       -0.032
     17 C10       -18.4640   46.5780   50.8350 C.3       1 SUB1       -0.032
     18 C9        -18.3630   44.0820   50.4060 C.3       1 SUB1       -0.032
     19 C4        -13.4950   44.9840   52.4800 C.3       1 SUB1        0.144
     20 C5        -13.2760   46.1750   53.3680 C.2       1 SUB1        0.203
     21 O1        -12.4680   46.1370   54.2770 O.2       1 SUB1       -0.394
     22 N1        -13.9980   47.2640   53.1280 N.am      1 SUB1       -0.288
     23 C6        -13.8350   48.4550   53.9550 C.3       1 SUB1        0.020
     24 C3        -12.2180   44.3430   51.9280 C.3       1 SUB1        0.012
     25 C2        -11.5380   45.3190   50.9990 C.ar      1 SUB1       -0.051
     26 C1        -10.1510   45.4740   51.0300 C.ar      1 SUB1       -0.082
     27 H          -9.5948   49.0103   48.7601 H         1 SUB1        0.216
     28 H          -8.4426   46.5236   50.2066 H         1 SUB1        0.041
     29 H         -12.2899   47.5471   48.5837 H         1 SUB1        0.040
     30 H         -14.0616   45.1831   49.3045 H         1 SUB1        0.067
     31 H         -14.2678   46.8639   49.9853 H         1 SUB1        0.067
     32 H         -17.5529   46.6058   48.2454 H         1 SUB1        0.026
     33 H         -17.5379   44.8426   47.9966 H         1 SUB1        0.026
     34 H         -19.0749   45.6840   48.3142 H         1 SUB1        0.026
     35 H         -18.2804   46.4243   51.8984 H         1 SUB1        0.026
     36 H         -18.0371   47.5320   50.5254 H         1 SUB1        0.026
     37 H         -19.5377   46.5808   50.6470 H         1 SUB1        0.026
     38 H         -17.8868   43.3235   49.7847 H         1 SUB1        0.026
     39 H         -18.1548   43.8766   51.4560 H         1 SUB1        0.026
     40 H         -19.4399   44.0673   50.2382 H         1 SUB1        0.026
     41 H         -13.9608   44.2534   53.1413 H         1 SUB1        0.082
     42 H         -14.6704   47.2676   52.3610 H         1 SUB1        0.185
     43 H         -14.0688   48.2110   54.9913 H         1 SUB1        0.048
     44 H         -12.8051   48.8053   53.8863 H         1 SUB1        0.048
     45 H         -14.5098   49.2353   53.6030 H         1 SUB1        0.048
     46 H         -12.4701   43.4330   51.3835 H         1 SUB1        0.043
     47 H         -11.5483   44.0920   52.7506 H         1 SUB1        0.043
     48 H          -9.5532   44.8813   51.7224 H         1 SUB1        0.050
@<TRIPOS>BOND
     1    1    2 2  
     2    2    3 2  
     3    2    4 2  
     4    2    5 1  
     5    5    6 1  
     6    6    7 ar 
     7    6    8 ar 
     8    7   26 ar 
     9    8    9 ar 
    10    9   10 1  
    11    9   25 ar 
    12   10   11 1  
    13   11   12 am 
    14   11   19 1  
    15   12   13 2  
    16   12   14 1  
    17   14   15 1  
    18   15   16 1  
    19   15   17 1  
    20   15   18 1  
    21   19   20 1  
    22   19   24 1  
    23   20   21 2  
    24   20   22 am 
    25   22   23 1  
    26   24   25 1  
    27   25   26 ar 
    28    5   27 1  
    29    7   28 1  
    30    8   29 1  
    31   10   30 1  
    32   10   31 1  
    33   16   32 1  
    34   16   33 1  
    35   16   34 1  
    36   17   35 1  
    37   17   36 1  
    38   17   37 1  
    39   18   38 1  
    40   18   39 1  
    41   18   40 1  
    42   19   41 1  
    43   22   42 1  
    44   23   43 1  
    45   23   44 1  
    46   23   45 1  
    47   24   46 1  
    48   24   47 1  
    49   26   48 1  
@<TRIPOS>SUBSTRUCTURE
     1 SUB1        1 GROUP

