### 
### Created by X-TOOL on Mon Oct 24 22:55:25 2005
### 

@<TRIPOS>MOLECULE
1i9o_ligand
   34    35     1     0     0
SMALL
GAST_HUCK


@<TRIPOS>ATOM
      1 C01        -3.9360    1.9150   14.5970 C.ar      1 SUB1       -0.040
      2 C02        -4.2800    0.8310   15.4190 C.ar      1 SUB1       -0.030
      3 C03        -5.6590    0.6690   15.8500 C.ar      1 SUB1        0.112
      4 C04        -6.6010    1.6060   15.4410 C.ar      1 SUB1       -0.030
      5 C05        -6.2150    2.6940   14.6070 C.ar      1 SUB1       -0.040
      6 C06        -4.9000    2.8550   14.1790 C.ar      1 SUB1        0.050
      7 C07        -4.4480    4.0020   13.2670 C.2       1 SUB1        0.207
      8 O08        -5.3330    4.8290   12.8840 O.2       1 SUB1       -0.384
      9 N09        -3.0390    4.1480   12.8440 N.am      1 SUB1       -0.276
     10 C10        -2.5630    5.4530   12.4640 C.3       1 SUB1        0.062
     11 S11        -6.0320   -0.7390   16.8650 S.o2      1 SUB1        0.068
     12 NP2        -5.4410   -2.2260   16.2460 N.am      1 SUB1       -0.261
     13 O13        -7.4490   -0.5280   16.9760 O.2       1 SUB1       -0.150
     14 O14        -5.3920   -0.2990   18.1360 O.2       1 SUB1       -0.150
     15 C15        -1.8810    6.2960   13.3720 C.ar      1 SUB1        0.007
     16 C16        -2.4240    6.4970   14.7420 C.ar      1 SUB1        0.166
     17 C17        -1.6650    7.4000   15.6490 C.ar      1 SUB1        0.191
     18 C18        -0.4220    8.0690   15.2040 C.ar      1 SUB1        0.156
     19 C19         0.1000    7.8500   13.8340 C.ar      1 SUB1       -0.040
     20 C20        -0.6110    6.9760   12.9220 C.ar      1 SUB1       -0.066
     21 F21         0.1860    8.8150   15.9810 F         1 SUB1       -0.191
     22 F22        -3.4580    5.9510   15.1270 F         1 SUB1       -0.191
     23 F23        -2.1330    7.6090   16.9100 F         1 SUB1       -0.187
     24 H11        -2.9071    2.0321   14.2766 H         1 SUB1        0.067
     25 H21        -3.5234    0.1199   15.7302 H         1 SUB1        0.065
     26 H41        -7.6330    1.5082   15.7580 H         1 SUB1        0.065
     27 H51        -6.9635    3.4145   14.2978 H         1 SUB1        0.067
     28 H91        -2.4285    3.3563   12.8222 H         1 SUB1        0.187
     29 H101       -3.4452    6.0157   12.1247 H         1 SUB1        0.067
     30 H102       -1.8795    5.2966   11.6164 H         1 SUB1        0.067
     31 H121       -5.6017   -3.0758   16.7481 H         1 SUB1        0.163
     32 H122       -4.9358   -2.2429   15.3832 H         1 SUB1        0.163
     33 H191        1.0115    8.3424   13.5149 H         1 SUB1        0.054
     34 H201       -0.2317    6.8113   11.9199 H         1 SUB1        0.050
@<TRIPOS>BOND
     1    1    2 ar 
     2    1    6 ar 
     3    2    3 ar 
     4    3    4 ar 
     5    3   11 1  
     6    4    5 ar 
     7    5    6 ar 
     8    6    7 1  
     9    7    8 2  
    10    7    9 am 
    11    9   10 1  
    12   10   15 1  
    13   11   12 1  
    14   11   13 2  
    15   11   14 2  
    16   15   16 ar 
    17   15   20 ar 
    18   16   17 ar 
    19   16   22 1  
    20   17   18 ar 
    21   17   23 1  
    22   18   19 ar 
    23   18   21 1  
    24   19   20 ar 
    25    1   24 1  
    26    2   25 1  
    27    4   26 1  
    28    5   27 1  
    29    9   28 1  
    30   10   29 1  
    31   10   30 1  
    32   12   31 1  
    33   12   32 1  
    34   19   33 1  
    35   20   34 1  
@<TRIPOS>SUBSTRUCTURE
     1 SUB1        1 GROUP

