1i9o_ligand
  -I-interpret- 

 34 35  0  0  0  0  0  0  0  0999 V2000
   -3.9360    1.9150   14.5970 C   0  0  0  0  0
   -4.2800    0.8310   15.4190 C   0  0  0  0  0
   -5.6590    0.6690   15.8500 C   0  0  0  0  0
   -6.6010    1.6060   15.4410 C   0  0  0  0  0
   -6.2150    2.6940   14.6070 C   0  0  0  0  0
   -4.9000    2.8550   14.1790 C   0  0  0  0  0
   -4.4480    4.0020   13.2670 C   0  0  0  0  0
   -5.3330    4.8290   12.8840 O   0  0  0  0  0
   -3.0390    4.1480   12.8440 N   0  0  0  0  0
   -2.5630    5.4530   12.4640 C   0  0  0  0  0
   -6.0320   -0.7390   16.8650 S   0  0  0  0  0
   -5.4410   -2.2260   16.2460 N   0  0  0  0  0
   -7.4490   -0.5280   16.9760 O   0  0  0  0  0
   -5.3920   -0.2990   18.1360 O   0  0  0  0  0
   -1.8810    6.2960   13.3720 C   0  0  0  0  0
   -2.4240    6.4970   14.7420 C   0  0  0  0  0
   -1.6650    7.4000   15.6490 C   0  0  0  0  0
   -0.4220    8.0690   15.2040 C   0  0  0  0  0
    0.1000    7.8500   13.8340 C   0  0  0  0  0
   -0.6110    6.9760   12.9220 C   0  0  0  0  0
    0.1860    8.8150   15.9810 F   0  0  0  0  0
   -3.4580    5.9510   15.1270 F   0  0  0  0  0
   -2.1330    7.6090   16.9100 F   0  0  0  0  0
   -2.9071    2.0321   14.2766 H   0  0  0  0  0
   -3.5234    0.1199   15.7302 H   0  0  0  0  0
   -7.6330    1.5082   15.7580 H   0  0  0  0  0
   -6.9635    3.4145   14.2978 H   0  0  0  0  0
   -2.4285    3.3563   12.8222 H   0  0  0  0  0
   -3.4452    6.0157   12.1247 H   0  0  0  0  0
   -1.8795    5.2966   11.6164 H   0  0  0  0  0
   -5.6017   -3.0758   16.7481 H   0  0  0  0  0
   -4.9358   -2.2429   15.3832 H   0  0  0  0  0
    1.0115    8.3424   13.5149 H   0  0  0  0  0
   -0.2317    6.8113   11.9199 H   0  0  0  0  0
  1  2  4  0  0  0
  1  6  4  0  0  0
  2  3  4  0  0  0
  3  4  4  0  0  0
  3 11  1  0  0  0
  4  5  4  0  0  0
  5  6  4  0  0  0
  6  7  1  0  0  0
  7  8  2  0  0  0
  7  9  1  0  0  0
  9 10  1  0  0  0
 10 15  1  0  0  0
 11 12  1  0  0  0
 11 13  2  0  0  0
 11 14  2  0  0  0
 15 16  4  0  0  0
 15 20  4  0  0  0
 16 17  4  0  0  0
 16 22  1  0  0  0
 17 18  4  0  0  0
 17 23  1  0  0  0
 18 19  4  0  0  0
 18 21  1  0  0  0
 19 20  4  0  0  0
  1 24  1  0  0  0
  2 25  1  0  0  0
  4 26  1  0  0  0
  5 27  1  0  0  0
  9 28  1  0  0  0
 10 29  1  0  0  0
 10 30  1  0  0  0
 12 31  1  0  0  0
 12 32  1  0  0  0
 19 33  1  0  0  0
 20 34  1  0  0  0
M  END
$$$$
