### 
### Created by X-TOOL on Mon Oct 24 22:02:10 2005
### 

@<TRIPOS>MOLECULE
2sim_ligand
   36    36     1     0     0
SMALL
GAST_HUCK


@<TRIPOS>ATOM
      1 C1         43.1440   51.8930   45.7220 C.2       1 SUB1        0.061
      2 C2         42.9540   51.5700   47.0740 C.2       1 SUB1        0.094
      3 C3         41.6990   51.1110   47.5000 C.2       1 SUB1       -0.016
      4 C4         41.5320   50.4770   48.8760 C.3       1 SUB1        0.110
      5 C5         42.6710   50.9260   49.8030 C.3       1 SUB1        0.110
      6 C6         44.0010   50.6440   49.0790 C.3       1 SUB1        0.133
      7 C7         45.2100   51.0200   49.9070 C.3       1 SUB1        0.115
      8 C8         46.4760   50.7660   49.0570 C.3       1 SUB1        0.107
      9 C9         47.7450   51.1770   49.8680 C.3       1 SUB1        0.073
     10 C10        42.7660   50.7610   52.2420 C.2       1 SUB1        0.174
     11 C11        42.3930   49.9380   53.4740 C.3       1 SUB1        0.026
     12 N5         42.5120   50.2100   51.0570 N.am      1 SUB1       -0.276
     13 O1A        42.2370   52.2040   44.9500 O.co2     1 SUB1       -0.572
     14 O1B        44.2840   51.8270   45.2450 O.co2     1 SUB1       -0.572
     15 O4         40.2990   50.8100   49.5070 O.3       1 SUB1       -0.375
     16 O6         44.0580   51.4470   47.8980 O.3       1 SUB1       -0.320
     17 O7         45.0550   52.3880   50.2550 O.3       1 SUB1       -0.386
     18 O8         46.5260   49.3690   48.6880 O.3       1 SUB1       -0.387
     19 O9         47.8820   50.3710   51.0250 O.3       1 SUB1       -0.392
     20 O10        43.3710   51.8420   52.3360 O.2       1 SUB1       -0.397
     21 H31        40.8366   51.2084   46.8421 H         1 SUB1        0.061
     22 H41        41.5762   49.3846   48.7544 H         1 SUB1        0.081
     23 H51        42.5972   52.0059   49.9989 H         1 SUB1        0.064
     24 H61        44.0502   49.5762   48.8194 H         1 SUB1        0.069
     25 H71        45.2564   50.4092   50.8206 H         1 SUB1        0.065
     26 H81        46.4264   51.3753   48.1426 H         1 SUB1        0.064
     27 H91        47.6547   52.2307   50.1705 H         1 SUB1        0.058
     28 H92        48.6350   51.0525   49.2337 H         1 SUB1        0.058
     29 H111       42.6518   50.5008   54.3830 H         1 SUB1        0.047
     30 H112       42.9464   48.9874   53.4613 H         1 SUB1        0.047
     31 H113       41.3123   49.7333   53.4648 H         1 SUB1        0.047
     32 H121       42.1978   49.2611   51.0288 H         1 SUB1        0.186
     33 H151       40.2548   50.3869   50.3564 H         1 SUB1        0.214
     34 H171       44.2545   52.4978   50.7547 H         1 SUB1        0.210
     35 H181       46.5559   48.8360   49.4738 H         1 SUB1        0.210
     36 H191       47.9631   49.4603   50.7673 H         1 SUB1        0.209
@<TRIPOS>BOND
     1    1   14 2  
     2    1   13 2  
     3    1    2 1  
     4    2   16 1  
     5    2    3 2  
     6    3    4 1  
     7    4   15 1  
     8    4    5 1  
     9    5   12 1  
    10    5    6 1  
    11    6   16 1  
    12    6    7 1  
    13    7   17 1  
    14    7    8 1  
    15    8   18 1  
    16    8    9 1  
    17    9   19 1  
    18   12   10 am 
    19   10   20 2  
    20   10   11 1  
    21    3   21 1  
    22    4   22 1  
    23    5   23 1  
    24    6   24 1  
    25    7   25 1  
    26    8   26 1  
    27    9   27 1  
    28    9   28 1  
    29   11   29 1  
    30   11   30 1  
    31   11   31 1  
    32   12   32 1  
    33   15   33 1  
    34   17   34 1  
    35   18   35 1  
    36   19   36 1  
@<TRIPOS>SUBSTRUCTURE
     1 SUB1        1 GROUP

