### 
### Created by X-TOOL on Tue Oct 25 00:59:33 2005
### 

@<TRIPOS>MOLECULE
1xap_ligand
   53    55     1     0     0
SMALL
GAST_HUCK


@<TRIPOS>ATOM
      1 C          41.9000   20.3100  101.3100 C.3       1 SUB1       -0.009
      2 C2         42.5580   21.6170  100.8350 C.2       1 SUB1        0.012
      3 C3         42.0980   22.9050  101.0410 C.2       1 SUB1       -0.010
      4 C4         40.8980   23.4660  101.7400 C.ar      1 SUB1        0.010
      5 C5         40.4810   24.7890  101.3780 C.ar      1 SUB1       -0.019
      6 C6         39.3570   25.4000  101.9780 C.ar      1 SUB1       -0.004
      7 C7         38.5920   24.7080  102.9640 C.ar      1 SUB1        0.103
      8 C8         37.3890   25.3380  103.5950 C.2       1 SUB1        0.200
      9 O          37.0460   26.4750  103.2510 O.co2     1 SUB1       -0.460
     10 O1         36.7500   24.7070  104.4460 O.co2     1 SUB1       -0.460
     11 C9         39.0060   23.3980  103.3350 C.ar      1 SUB1       -0.004
     12 C10        40.1360   22.7910  102.7300 C.ar      1 SUB1       -0.019
     13 C11        43.8370   21.4640  100.0480 C.ar      1 SUB1        0.040
     14 C12        44.8810   22.4150  100.1500 C.ar      1 SUB1       -0.020
     15 C13        46.0590   22.2660   99.4060 C.ar      1 SUB1       -0.052
     16 C14        46.2720   21.1570   98.5230 C.ar      1 SUB1       -0.117
     17 C15        45.2180   20.1710   98.4020 C.ar      1 SUB1       -0.096
     18 C16        44.0310   20.3570   99.1750 C.ar      1 SUB1       -0.024
     19 C17        45.3510   18.9280   97.4770 C.3       1 SUB1       -0.089
     20 C18        44.7910   17.6850   98.2070 C.3       1 SUB1       -0.112
     21 C19        44.5550   19.0970   96.1590 C.3       1 SUB1       -0.112
     22 C20        46.8350   18.6340   97.1030 C.3       1 SUB1       -0.117
     23 C21        47.6340   19.8930   96.6890 C.3       1 SUB1       -0.126
     24 C22        47.6100   21.0590   97.7340 C.3       1 SUB1       -0.112
     25 C23        47.8830   22.3810   96.9760 C.3       1 SUB1       -0.124
     26 C24        48.7720   20.8130   98.7170 C.3       1 SUB1       -0.124
     27 H11        40.9818   20.5438  101.8687 H         1 SUB1        0.049
     28 H12        42.5974   19.7644  101.9626 H         1 SUB1        0.049
     29 H13        41.6502   19.6873  100.4383 H         1 SUB1        0.049
     30 H31        42.7407   23.6685  100.6052 H         1 SUB1        0.069
     31 H51        41.0411   25.3334  100.6264 H         1 SUB1        0.071
     32 H61        39.0730   26.4046  101.6863 H         1 SUB1        0.091
     33 H111       38.4495   22.8561  104.0911 H         1 SUB1        0.091
     34 H121       40.4243   21.7900  103.0299 H         1 SUB1        0.071
     35 H141       44.7678   23.2671  100.8104 H         1 SUB1        0.080
     36 H151       46.8363   23.0155   99.5015 H         1 SUB1        0.077
     37 H181       43.2405   19.6198   99.0926 H         1 SUB1        0.096
     38 H201       44.8838   16.8040   97.5549 H         1 SUB1        0.005
     39 H202       43.7314   17.8499   98.4518 H         1 SUB1        0.005
     40 H203       45.3595   17.5168   99.1335 H         1 SUB1        0.005
     41 H211       44.9303   19.9758   95.6141 H         1 SUB1        0.005
     42 H212       43.4886   19.2367   96.3900 H         1 SUB1        0.005
     43 H213       44.6808   18.1986   95.5369 H         1 SUB1        0.005
     44 H221       46.8472   17.9235   96.2634 H         1 SUB1        0.007
     45 H222       47.3293   18.1802   97.9746 H         1 SUB1        0.007
     46 H231       47.2131   20.2705   95.7454 H         1 SUB1        0.003
     47 H232       48.6815   19.5969   96.5308 H         1 SUB1        0.003
     48 H251       47.8721   23.2203   97.6870 H         1 SUB1        0.001
     49 H252       47.1038   22.5350   96.2150 H         1 SUB1        0.001
     50 H253       48.8671   22.3271   96.4875 H         1 SUB1        0.001
     51 H261       48.5957   19.8762   99.2660 H         1 SUB1        0.001
     52 H262       48.8333   21.6493   99.4290 H         1 SUB1        0.001
     53 H263       49.7160   20.7379   98.1574 H         1 SUB1        0.001
@<TRIPOS>BOND
     1    1    2 1  
     2    2    3 2  
     3    2   13 1  
     4    3    4 1  
     5    4    5 ar 
     6    4   12 ar 
     7    5    6 ar 
     8    6    7 ar 
     9    7    8 1  
    10    7   11 ar 
    11    8    9 2  
    12    8   10 2  
    13   11   12 ar 
    14   13   14 ar 
    15   13   18 ar 
    16   14   15 ar 
    17   15   16 ar 
    18   16   17 ar 
    19   16   24 1  
    20   17   18 ar 
    21   17   19 1  
    22   19   20 1  
    23   19   21 1  
    24   19   22 1  
    25   22   23 1  
    26   23   24 1  
    27   24   25 1  
    28   24   26 1  
    29    1   27 1  
    30    1   28 1  
    31    1   29 1  
    32    3   30 1  
    33    5   31 1  
    34    6   32 1  
    35   11   33 1  
    36   12   34 1  
    37   14   35 1  
    38   15   36 1  
    39   18   37 1  
    40   20   38 1  
    41   20   39 1  
    42   20   40 1  
    43   21   41 1  
    44   21   42 1  
    45   21   43 1  
    46   22   44 1  
    47   22   45 1  
    48   23   46 1  
    49   23   47 1  
    50   25   48 1  
    51   25   49 1  
    52   25   50 1  
    53   26   51 1  
    54   26   52 1  
    55   26   53 1  
@<TRIPOS>SUBSTRUCTURE
     1 SUB1        1 GROUP

