1c5s_ligand
  -I-interpret- 

 21 22  0  0  0  0  0  0  0  0999 V2000
   46.8171   19.3717   55.7006 H   0  0  0  0  0
   46.7395   17.6299   56.0786 H   0  0  0  0  0
   45.3314   16.9034   52.8731 H   0  0  0  0  0
   45.8638   16.1749   54.4122 H   0  0  0  0  0
   46.6568   21.0055   54.3194 H   0  0  0  0  0
   44.3332   20.7422   49.3252 H   0  0  0  0  0
   44.6924   23.1812   49.0883 H   0  0  0  0  0
   45.7797   24.4366   50.9261 H   0  0  0  0  0
   46.4818   23.2682   52.9901 H   0  0  0  0  0
   46.0670   18.1780   54.2560 C   0  3  0  0  0
   45.8750   19.2150   53.3870 C   0  0  0  0  0
   46.5760   18.4090   55.4250 N   0  0  0  0  0
   45.7310   17.0050   53.8170 N   0  0  0  0  0
   45.0680   18.9640   51.7180 S   0  0  0  0  0
   45.2060   20.6700   51.2840 C   0  0  0  0  0
   45.8110   21.3380   52.3400 C   0  0  0  0  0
   46.1700   20.5660   53.4500 C   0  0  0  0  0
   44.8030   21.3060   50.1230 C   0  0  0  0  0
   45.0050   22.6670   49.9900 C   0  0  0  0  0
   45.6130   23.3700   51.0240 C   0  0  0  0  0
   46.0110   22.7070   52.1910 C   0  0  0  0  0
 12  1  1  0  0  0
 12  2  1  0  0  0
 13  3  1  0  0  0
 13  4  1  0  0  0
 17  5  1  0  0  0
 18  6  1  0  0  0
 19  7  1  0  0  0
 20  8  1  0  0  0
 21  9  1  0  0  0
 10 13  1  0  0  0
 10 12  1  0  0  0
 11 10  1  0  0  0
 17 11  2  0  0  0
 11 14  1  0  0  0
 15 14  1  0  0  0
 15 18  4  0  0  0
 16 15  4  0  0  0
 21 16  4  0  0  0
 16 17  1  0  0  0
 20 21  4  0  0  0
 20 19  4  0  0  0
 19 18  4  0  0  0
M  END
$$$$
