### 
### Created by X-TOOL on Mon Oct 24 21:55:12 2005
### 

@<TRIPOS>MOLECULE
1c5s_ligand
   21    22     1     0     0
SMALL
GAST_HUCK


@<TRIPOS>ATOM
      1 H121       46.8171   19.3717   55.7006 H         1 SUB1        0.193
      2 H122       46.7395   17.6299   56.0786 H         1 SUB1        0.193
      3 H131       45.3314   16.9034   52.8731 H         1 SUB1        0.193
      4 H132       45.8638   16.1749   54.4122 H         1 SUB1        0.193
      5 H171       46.6568   21.0055   54.3194 H         1 SUB1        0.047
      6 H181       44.3332   20.7422   49.3252 H         1 SUB1        0.057
      7 H191       44.6924   23.1812   49.0883 H         1 SUB1        0.057
      8 H201       45.7797   24.4366   50.9261 H         1 SUB1        0.056
      9 H211       46.4818   23.2682   52.9901 H         1 SUB1        0.057
     10 C0         46.0670   18.1780   54.2560 C.cat     1 SUB1        0.331
     11 C1         45.8750   19.2150   53.3870 C.2       1 SUB1        0.243
     12 N1         46.5760   18.4090   55.4250 N.pl3     1 SUB1       -0.199
     13 N2         45.7310   17.0050   53.8170 N.pl3     1 SUB1       -0.199
     14 S2         45.0680   18.9640   51.7180 S.3       1 SUB1        0.021
     15 C3         45.2060   20.6700   51.2840 C.ar      1 SUB1        0.042
     16 C4         45.8110   21.3380   52.3400 C.ar      1 SUB1       -0.021
     17 C5         46.1700   20.5660   53.4500 C.2       1 SUB1       -0.005
     18 C6         44.8030   21.3060   50.1230 C.ar      1 SUB1       -0.050
     19 C7         45.0050   22.6670   49.9900 C.ar      1 SUB1       -0.071
     20 C8         45.6130   23.3700   51.0240 C.ar      1 SUB1       -0.072
     21 C9         46.0110   22.7070   52.1910 C.ar      1 SUB1       -0.067
@<TRIPOS>BOND
     1   12    1 1  
     2   12    2 1  
     3   13    3 1  
     4   13    4 1  
     5   17    5 1  
     6   18    6 1  
     7   19    7 1  
     8   20    8 1  
     9   21    9 1  
    10   10   13 1  
    11   10   12 1  
    12   11   10 1  
    13   17   11 2  
    14   11   14 1  
    15   15   14 1  
    16   15   18 ar 
    17   16   15 ar 
    18   21   16 ar 
    19   16   17 1  
    20   20   21 ar 
    21   20   19 ar 
    22   19   18 ar 
@<TRIPOS>SUBSTRUCTURE
     1 SUB1        1 GROUP

