### 
### Created by X-TOOL on Mon Oct 24 23:11:58 2005
### 

@<TRIPOS>MOLECULE
1me8_ligand
   32    33     1     0     0
SMALL
GAST_HUCK


@<TRIPOS>ATOM
      1 P          67.8060   55.1920   15.0100 P.3       1 SUB1        0.205
      2 O1P        67.4470   55.1060   13.5660 O.co2     1 SUB1       -0.535
      3 O2P        68.6180   53.9930   15.3860 O.co2     1 SUB1       -0.535
      4 O3P        68.5890   56.4890   15.3350 O.co2     1 SUB1       -0.535
      5 O5'        66.5640   55.2600   15.9980 O.3       1 SUB1       -0.320
      6 C5'        65.6010   54.2070   15.9620 C.3       1 SUB1        0.094
      7 C4'        64.5210   54.4180   16.9850 C.3       1 SUB1        0.118
      8 O4'        63.7660   55.6050   16.5400 O.3       1 SUB1       -0.334
      9 C3'        63.4370   53.3700   17.1790 C.3       1 SUB1        0.115
     10 O3'        63.8630   52.2290   17.9140 O.3       1 SUB1       -0.386
     11 C2'        62.3430   54.1620   17.8320 C.3       1 SUB1        0.141
     12 O2'        62.4820   54.2780   19.2360 O.3       1 SUB1       -0.383
     13 C1'        62.4340   55.4860   17.0670 C.3       1 SUB1        0.218
     14 N9         61.4750   55.6020   15.9030 N.pl3     1 SUB1       -0.139
     15 C8         60.9890   54.6940   14.9780 C.2       1 SUB1        0.135
     16 N7         60.1710   55.2310   14.1290 N.2       1 SUB1       -0.269
     17 C5         60.0840   56.5440   14.4680 C.2       1 SUB1        0.177
     18 C6         59.3290   57.6340   13.8770 C.2       1 SUB1        0.224
     19 O6         58.5920   57.5670   12.9060 O.2       1 SUB1       -0.382
     20 N1         59.5010   58.9020   14.5320 N.am      1 SUB1       -0.298
     21 N4         60.8830   56.8100   15.5740 N.2       1 SUB1       -0.158
     22 H61        65.1346   54.1734   14.9664 H         1 SUB1        0.064
     23 H62        66.0993   53.2498   16.1753 H         1 SUB1        0.064
     24 H71        65.0000   54.5842   17.9611 H         1 SUB1        0.065
     25 H91        63.0791   53.0176   16.2004 H         1 SUB1        0.065
     26 H101       64.1510   52.4996   18.7779 H         1 SUB1        0.210
     27 H111       61.3658   53.6991   17.6304 H         1 SUB1        0.068
     28 H121       62.4756   53.4119   19.6264 H         1 SUB1        0.210
     29 H131       62.2235   56.3131   17.7609 H         1 SUB1        0.103
     30 H151       61.2649   53.6406   14.9653 H         1 SUB1        0.138
     31 H201       59.0187   59.7096   14.1926 H         1 SUB1        0.181
     32 H202       60.1030   58.9765   15.3270 H         1 SUB1        0.181
@<TRIPOS>BOND
     1    1    2 2  
     2    1    3 2  
     3    1    4 2  
     4    1    5 1  
     5    5    6 1  
     6    6    7 1  
     7    7    8 1  
     8    7    9 1  
     9    8   13 1  
    10    9   10 1  
    11    9   11 1  
    12   11   12 1  
    13   11   13 1  
    14   13   14 1  
    15   14   15 1  
    16   14   21 1  
    17   15   16 2  
    18   16   17 1  
    19   17   18 1  
    20   17   21 2  
    21   18   19 2  
    22   18   20 am 
    23    6   22 1  
    24    6   23 1  
    25    7   24 1  
    26    9   25 1  
    27   10   26 1  
    28   11   27 1  
    29   12   28 1  
    30   13   29 1  
    31   15   30 1  
    32   20   31 1  
    33   20   32 1  
@<TRIPOS>SUBSTRUCTURE
     1 SUB1        1 GROUP

