1me8_ligand
  -I-interpret- 

 32 33  0  0  0  0  0  0  0  0999 V2000
   67.8060   55.1920   15.0100 P   0  0  0  0  0
   67.4470   55.1060   13.5660 O   0  0  0  0  0
   68.6180   53.9930   15.3860 O   0  5  0  0  0
   68.5890   56.4890   15.3350 O   0  5  0  0  0
   66.5640   55.2600   15.9980 O   0  0  0  0  0
   65.6010   54.2070   15.9620 C   0  0  0  0  0
   64.5210   54.4180   16.9850 C   0  0  0  0  0
   63.7660   55.6050   16.5400 O   0  0  0  0  0
   63.4370   53.3700   17.1790 C   0  0  0  0  0
   63.8630   52.2290   17.9140 O   0  0  0  0  0
   62.3430   54.1620   17.8320 C   0  0  0  0  0
   62.4820   54.2780   19.2360 O   0  0  0  0  0
   62.4340   55.4860   17.0670 C   0  0  0  0  0
   61.4750   55.6020   15.9030 N   0  0  0  0  0
   60.9890   54.6940   14.9780 C   0  0  0  0  0
   60.1710   55.2310   14.1290 N   0  0  0  0  0
   60.0840   56.5440   14.4680 C   0  0  0  0  0
   59.3290   57.6340   13.8770 C   0  0  0  0  0
   58.5920   57.5670   12.9060 O   0  0  0  0  0
   59.5010   58.9020   14.5320 N   0  0  0  0  0
   60.8830   56.8100   15.5740 N   0  0  0  0  0
   65.1346   54.1734   14.9664 H   0  0  0  0  0
   66.0993   53.2498   16.1753 H   0  0  0  0  0
   65.0000   54.5842   17.9611 H   0  0  0  0  0
   63.0791   53.0176   16.2004 H   0  0  0  0  0
   64.1510   52.4996   18.7779 H   0  0  0  0  0
   61.3658   53.6991   17.6304 H   0  0  0  0  0
   62.4756   53.4119   19.6264 H   0  0  0  0  0
   62.2235   56.3131   17.7609 H   0  0  0  0  0
   61.2649   53.6406   14.9653 H   0  0  0  0  0
   59.0187   59.7096   14.1926 H   0  0  0  0  0
   60.1030   58.9765   15.3270 H   0  0  0  0  0
  1  2  2  0  0  0
  1  3  1  0  0  0
  1  4  1  0  0  0
  1  5  1  0  0  0
  5  6  1  0  0  0
  6  7  1  0  0  0
  7  8  1  0  0  0
  7  9  1  0  0  0
  8 13  1  0  0  0
  9 10  1  0  0  0
  9 11  1  0  0  0
 11 12  1  0  0  0
 11 13  1  0  0  0
 13 14  1  0  0  0
 14 15  1  0  0  0
 14 21  1  0  0  0
 15 16  2  0  0  0
 16 17  1  0  0  0
 17 18  1  0  0  0
 17 21  2  0  0  0
 18 19  2  0  0  0
 18 20  1  0  0  0
  6 22  1  0  0  0
  6 23  1  0  0  0
  7 24  1  0  0  0
  9 25  1  0  0  0
 10 26  1  0  0  0
 11 27  1  0  0  0
 12 28  1  0  0  0
 13 29  1  0  0  0
 15 30  1  0  0  0
 20 31  1  0  0  0
 20 32  1  0  0  0
M  END
$$$$
