### 
### Created by X-TOOL on Mon Oct 24 22:36:46 2005
### 

@<TRIPOS>MOLECULE
1slg_ligand
  110   112     1     0     0
SMALL
GAST_HUCK


@<TRIPOS>ATOM
      1 N          23.3250   -5.4260   18.9270 N.4       1 SUB1        0.239
      2 CA         23.7540   -4.1070   18.5170 C.3       1 SUB1        0.074
      3 C          22.7200   -3.3310   19.3100 C.2       1 SUB1        0.229
      4 O          22.8730   -3.4700   20.5380 O.2       1 SUB1       -0.391
      5 CB         23.5960   -3.9150   17.0090 C.3       1 SUB1        0.042
      6 CG         24.3500   -2.6950   16.4840 C.ar      1 SUB1       -0.035
      7 CD1        25.6810   -2.4820   16.8760 C.ar      1 SUB1       -0.060
      8 CD2        23.7380   -1.8180   15.5800 C.ar      1 SUB1       -0.060
      9 CE1        26.3890   -1.3880   16.3630 C.ar      1 SUB1       -0.069
     10 CE2        24.4550   -0.7310   15.0790 C.ar      1 SUB1       -0.069
     11 CZ         25.7760   -0.5100   15.4660 C.ar      1 SUB1       -0.069
     12 N          21.6640   -2.7170   18.7120 N.am      1 SUB1       -0.259
     13 CA         20.6230   -1.8840   19.4100 C.3       1 SUB1        0.154
     14 C          21.3540   -0.5370   19.4810 C.2       1 SUB1        0.206
     15 O          22.5820   -0.4610   19.7790 O.2       1 SUB1       -0.394
     16 CB         20.1980   -2.3840   20.8930 C.3       1 SUB1        0.084
     17 OG         19.8460   -3.8300   20.7500 O.3       1 SUB1       -0.390
     18 N          20.5870    0.3800   18.8570 N.am      1 SUB1       -0.262
     19 CA         21.1250    1.6660   18.4890 C.3       1 SUB1        0.137
     20 C          19.9680    2.6800   18.5070 C.2       1 SUB1        0.208
     21 O          18.8040    2.2320   18.4080 O.2       1 SUB1       -0.394
     22 CB         21.7580    1.4290   17.1100 C.3       1 SUB1        0.014
     23 CG         22.3710    2.6780   16.5040 C.2       1 SUB1       -0.003
     24 ND1        21.5970    3.6200   15.9640 N.2       1 SUB1       -0.325
     25 CD2        23.6970    2.9990   16.5800 C.2       1 SUB1        0.029
     26 CE1        22.4500    4.5620   15.6910 C.2       1 SUB1        0.091
     27 NE2        23.6820    4.2120   16.0600 N.pl3     1 SUB1       -0.275
     28 N          20.2170    4.0320   18.6510 N.am      1 SUB1       -0.250
     29 CA         19.1960    5.0700   18.6580 C.3       1 SUB1        0.134
     30 C          18.4730    5.2870   17.3590 C.2       1 SUB1        0.204
     31 O          17.4010    5.8650   17.3880 O.2       1 SUB1       -0.394
     32 CB         19.8970    6.3470   19.0560 C.3       1 SUB1       -0.010
     33 CG         21.1430    5.9120   19.7340 C.3       1 SUB1       -0.028
     34 CD         21.4970    4.6600   18.9830 C.3       1 SUB1        0.037
     35 N          19.0260    4.8640   16.2020 N.am      1 SUB1       -0.264
     36 CA         18.4670    5.2880   14.9320 C.3       1 SUB1        0.133
     37 C          17.0230    4.8590   14.6800 C.2       1 SUB1        0.204
     38 O          16.2540    5.6240   14.0580 O.2       1 SUB1       -0.394
     39 CB         19.4050    4.7790   13.8200 C.3       1 SUB1        0.004
     40 CG         18.9470    5.2200   12.4350 C.3       1 SUB1        0.041
     41 CD         19.9570    4.8720   11.3710 C.2       1 SUB1        0.174
     42 OE1        21.1570    4.9650   11.6080 O.2       1 SUB1       -0.397
     43 NE2        19.4870    4.4750   10.1910 N.am      1 SUB1       -0.301
     44 N          16.5950    3.6800   15.1340 N.am      1 SUB1       -0.262
     45 CA         15.2120    3.2970   14.9330 C.3       1 SUB1        0.148
     46 C          14.7360    2.5160   16.1210 C.2       1 SUB1        0.207
     47 O          15.5170    1.7150   16.6380 O.2       1 SUB1       -0.394
     48 CB         15.0150    2.4060   13.6890 C.3       1 SUB1        0.077
     49 CG         15.0970    3.2200   12.4140 C.2       1 SUB1        0.178
     50 OD1        14.2500    4.0640   12.1350 O.2       1 SUB1       -0.397
     51 ND2        16.1030    3.0030   11.5980 N.am      1 SUB1       -0.301
     52 N          13.4470    2.7890   16.3560 N.am      1 SUB1       -0.266
     53 CA         12.5230    2.2840   17.3600 C.3       1 SUB1        0.107
     54 C          13.0810    2.2470   18.7680 C.2       1 SUB1        0.056
     55 O          13.6610    3.2850   19.1220 O.co2     1 SUB1       -0.564
     56 CB         12.0050    0.9050   16.7820 C.3       1 SUB1        0.086
     57 OG1        10.7090    0.8190   17.3890 O.3       1 SUB1       -0.387
     58 CG2        12.8920   -0.3430   16.9620 C.3       1 SUB1       -0.034
     59 OXT        12.8970    1.2820   19.5150 O.co2     1 SUB1       -0.564
     60 H11        22.5846   -5.3426   19.6059 H         1 SUB1        0.202
     61 H21        24.7860   -3.8757   18.8195 H         1 SUB1        0.112
     62 H51        22.5270   -3.7921   16.7807 H         1 SUB1        0.051
     63 H52        23.9792   -4.8110   16.4988 H         1 SUB1        0.051
     64 H71        26.1587   -3.1613   17.5727 H         1 SUB1        0.056
     65 H81        22.7121   -1.9828   15.2709 H         1 SUB1        0.056
     66 H91        27.4172   -1.2218   16.6633 H         1 SUB1        0.060
     67 H101       23.9798   -0.0510   14.3813 H         1 SUB1        0.060
     68 H111       26.3244    0.3385   15.0730 H         1 SUB1        0.056
     69 H121       21.5712   -2.8288   17.7226 H         1 SUB1        0.189
     70 H131       19.7138   -1.8152   18.7947 H         1 SUB1        0.082
     71 H161       19.3308   -1.8128   21.2560 H         1 SUB1        0.061
     72 H162       21.0371   -2.2615   21.5937 H         1 SUB1        0.061
     73 H171       20.6010   -4.3082   20.4278 H         1 SUB1        0.210
     74 H181       19.6332    0.1653   18.6469 H         1 SUB1        0.189
     75 H191       21.8981    1.9919   19.2004 H         1 SUB1        0.082
     76 H221       20.9789    1.0573   16.4282 H         1 SUB1        0.042
     77 H222       22.5466    0.6693   17.2145 H         1 SUB1        0.042
     78 H251       24.5334    2.4162   16.9630 H         1 SUB1        0.073
     79 H261       22.1923    5.5110   15.2230 H         1 SUB1        0.120
     80 H291       18.4450    4.8090   19.4182 H         1 SUB1        0.080
     81 H321       19.2691    6.9339   19.7425 H         1 SUB1        0.031
     82 H322       20.1321    6.9511   18.1673 H         1 SUB1        0.031
     83 H331       20.9641    5.7006   20.7986 H         1 SUB1        0.029
     84 H332       21.9339    6.6706   19.6387 H         1 SUB1        0.029
     85 H341       22.1020    3.9913   19.6128 H         1 SUB1        0.052
     86 H342       22.0547    4.9050   18.0671 H         1 SUB1        0.052
     87 H351       19.8213    4.2581   16.2205 H         1 SUB1        0.188
     88 H361       18.4784    6.3878   14.9166 H         1 SUB1        0.080
     89 H391       19.4288    3.6797   13.8520 H         1 SUB1        0.034
     90 H392       20.4159    5.1730   14.0011 H         1 SUB1        0.034
     91 H401       18.7974    6.3097   12.4403 H         1 SUB1        0.050
     92 H402       17.9958    4.7204   12.1993 H         1 SUB1        0.050
     93 H431       18.5002    4.4176   10.0395 H         1 SUB1        0.181
     94 H432       20.1206    4.2341    9.4558 H         1 SUB1        0.181
     95 H441       17.2239    3.0650   15.6096 H         1 SUB1        0.189
     96 H451       14.6070    4.2088   14.8210 H         1 SUB1        0.083
     97 H481       14.0273    1.9251   13.7448 H         1 SUB1        0.055
     98 H482       15.7983    1.6339   13.6729 H         1 SUB1        0.055
     99 H511       16.7913    2.3140   11.8250 H         1 SUB1        0.181
    100 H512       16.1806    3.5267   10.7497 H         1 SUB1        0.181
    101 H521       13.0480    3.4593   15.7302 H         1 SUB1        0.190
    102 H531       11.6634    2.9691   17.3998 H         1 SUB1        0.080
    103 H561       11.8783    1.0185   15.6952 H         1 SUB1        0.065
    104 H571       10.8025    0.8219   18.3344 H         1 SUB1        0.210
    105 H581       12.2580   -1.2151   17.1798 H         1 SUB1        0.026
    106 H582       13.5899   -0.1796   17.7964 H         1 SUB1        0.026
    107 H583       13.4610   -0.5248   16.0383 H         1 SUB1        0.026
    108 H12        24.1023   -5.9200   19.3366 H         1 SUB1        0.202
    109 H13        22.9890   -5.9347   18.1243 H         1 SUB1        0.202
    110 H271       24.5138    4.8101   15.9533 H         1 SUB1        0.236
@<TRIPOS>BOND
     1    3    2 1  
     2    2    5 1  
     3    2    1 1  
     4    5    6 1  
     5    6    8 ar 
     6    6    7 ar 
     7    7    9 ar 
     8    9   11 ar 
     9   10   11 ar 
    10    8   10 ar 
    11    3    4 2  
    12   14   13 1  
    13   13   16 1  
    14   13   12 1  
    15   16   17 1  
    16   14   15 2  
    17   20   19 1  
    18   19   22 1  
    19   19   18 1  
    20   22   23 1  
    21   23   25 2  
    22   23   24 1  
    23   24   26 2  
    24   26   27 1  
    25   25   27 1  
    26   20   21 2  
    27   29   28 1  
    28   29   32 1  
    29   30   29 1  
    30   30   31 2  
    31   32   33 1  
    32   33   34 1  
    33   28   34 1  
    34   37   36 1  
    35   36   39 1  
    36   36   35 1  
    37   39   40 1  
    38   40   41 1  
    39   41   42 2  
    40   41   43 am 
    41   37   38 2  
    42   46   45 1  
    43   45   48 1  
    44   45   44 1  
    45   48   49 1  
    46   49   50 2  
    47   49   51 am 
    48   46   47 2  
    49   53   54 1  
    50   53   56 1  
    51   52   53 1  
    52   56   57 1  
    53   56   58 1  
    54   54   59 2  
    55   54   55 2  
    56   12    3 am 
    57   18   14 am 
    58   28   20 am 
    59   35   30 am 
    60   44   37 am 
    61   46   52 am 
    62    1   60 1  
    63    2   61 1  
    64    5   62 1  
    65    5   63 1  
    66    7   64 1  
    67    8   65 1  
    68    9   66 1  
    69   10   67 1  
    70   11   68 1  
    71   12   69 1  
    72   13   70 1  
    73   16   71 1  
    74   16   72 1  
    75   17   73 1  
    76   18   74 1  
    77   19   75 1  
    78   22   76 1  
    79   22   77 1  
    80   25   78 1  
    81   26   79 1  
    82   29   80 1  
    83   32   81 1  
    84   32   82 1  
    85   33   83 1  
    86   33   84 1  
    87   34   85 1  
    88   34   86 1  
    89   35   87 1  
    90   36   88 1  
    91   39   89 1  
    92   39   90 1  
    93   40   91 1  
    94   40   92 1  
    95   43   93 1  
    96   43   94 1  
    97   44   95 1  
    98   45   96 1  
    99   48   97 1  
   100   48   98 1  
   101   51   99 1  
   102   51  100 1  
   103   52  101 1  
   104   53  102 1  
   105   56  103 1  
   106   57  104 1  
   107   58  105 1  
   108   58  106 1  
   109   58  107 1  
   110    1  108 1  
   111    1  109 1  
   112   27  110 1  
@<TRIPOS>SUBSTRUCTURE
     1 SUB1        1 GROUP

