1slg_ligand
  -I-interpret- 

110112  0  0  0  0  0  0  0  0999 V2000
   23.3250   -5.4260   18.9270 N   0  3  0  0  0
   23.7540   -4.1070   18.5170 C   0  0  0  0  0
   22.7200   -3.3310   19.3100 C   0  0  0  0  0
   22.8730   -3.4700   20.5380 O   0  0  0  0  0
   23.5960   -3.9150   17.0090 C   0  0  0  0  0
   24.3500   -2.6950   16.4840 C   0  0  0  0  0
   25.6810   -2.4820   16.8760 C   0  0  0  0  0
   23.7380   -1.8180   15.5800 C   0  0  0  0  0
   26.3890   -1.3880   16.3630 C   0  0  0  0  0
   24.4550   -0.7310   15.0790 C   0  0  0  0  0
   25.7760   -0.5100   15.4660 C   0  0  0  0  0
   21.6640   -2.7170   18.7120 N   0  0  0  0  0
   20.6230   -1.8840   19.4100 C   0  0  0  0  0
   21.3540   -0.5370   19.4810 C   0  0  0  0  0
   22.5820   -0.4610   19.7790 O   0  0  0  0  0
   20.1980   -2.3840   20.8930 C   0  0  0  0  0
   19.8460   -3.8300   20.7500 O   0  0  0  0  0
   20.5870    0.3800   18.8570 N   0  0  0  0  0
   21.1250    1.6660   18.4890 C   0  0  0  0  0
   19.9680    2.6800   18.5070 C   0  0  0  0  0
   18.8040    2.2320   18.4080 O   0  0  0  0  0
   21.7580    1.4290   17.1100 C   0  0  0  0  0
   22.3710    2.6780   16.5040 C   0  0  0  0  0
   21.5970    3.6200   15.9640 N   0  0  0  0  0
   23.6970    2.9990   16.5800 C   0  0  0  0  0
   22.4500    4.5620   15.6910 C   0  0  0  0  0
   23.6820    4.2120   16.0600 N   0  0  0  0  0
   20.2170    4.0320   18.6510 N   0  0  0  0  0
   19.1960    5.0700   18.6580 C   0  0  0  0  0
   18.4730    5.2870   17.3590 C   0  0  0  0  0
   17.4010    5.8650   17.3880 O   0  0  0  0  0
   19.8970    6.3470   19.0560 C   0  0  0  0  0
   21.1430    5.9120   19.7340 C   0  0  0  0  0
   21.4970    4.6600   18.9830 C   0  0  0  0  0
   19.0260    4.8640   16.2020 N   0  0  0  0  0
   18.4670    5.2880   14.9320 C   0  0  0  0  0
   17.0230    4.8590   14.6800 C   0  0  0  0  0
   16.2540    5.6240   14.0580 O   0  0  0  0  0
   19.4050    4.7790   13.8200 C   0  0  0  0  0
   18.9470    5.2200   12.4350 C   0  0  0  0  0
   19.9570    4.8720   11.3710 C   0  0  0  0  0
   21.1570    4.9650   11.6080 O   0  0  0  0  0
   19.4870    4.4750   10.1910 N   0  0  0  0  0
   16.5950    3.6800   15.1340 N   0  0  0  0  0
   15.2120    3.2970   14.9330 C   0  0  0  0  0
   14.7360    2.5160   16.1210 C   0  0  0  0  0
   15.5170    1.7150   16.6380 O   0  0  0  0  0
   15.0150    2.4060   13.6890 C   0  0  0  0  0
   15.0970    3.2200   12.4140 C   0  0  0  0  0
   14.2500    4.0640   12.1350 O   0  0  0  0  0
   16.1030    3.0030   11.5980 N   0  0  0  0  0
   13.4470    2.7890   16.3560 N   0  0  0  0  0
   12.5230    2.2840   17.3600 C   0  0  0  0  0
   13.0810    2.2470   18.7680 C   0  0  0  0  0
   13.6610    3.2850   19.1220 O   0  5  0  0  0
   12.0050    0.9050   16.7820 C   0  0  0  0  0
   10.7090    0.8190   17.3890 O   0  0  0  0  0
   12.8920   -0.3430   16.9620 C   0  0  0  0  0
   12.8970    1.2820   19.5150 O   0  0  0  0  0
   22.5846   -5.3426   19.6059 H   0  0  0  0  0
   24.7860   -3.8757   18.8195 H   0  0  0  0  0
   22.5270   -3.7921   16.7807 H   0  0  0  0  0
   23.9792   -4.8110   16.4988 H   0  0  0  0  0
   26.1587   -3.1613   17.5727 H   0  0  0  0  0
   22.7121   -1.9828   15.2709 H   0  0  0  0  0
   27.4172   -1.2218   16.6633 H   0  0  0  0  0
   23.9798   -0.0510   14.3813 H   0  0  0  0  0
   26.3244    0.3385   15.0730 H   0  0  0  0  0
   21.5712   -2.8288   17.7226 H   0  0  0  0  0
   19.7138   -1.8152   18.7947 H   0  0  0  0  0
   19.3308   -1.8128   21.2560 H   0  0  0  0  0
   21.0371   -2.2615   21.5937 H   0  0  0  0  0
   20.6010   -4.3082   20.4278 H   0  0  0  0  0
   19.6332    0.1653   18.6469 H   0  0  0  0  0
   21.8981    1.9919   19.2004 H   0  0  0  0  0
   20.9789    1.0573   16.4282 H   0  0  0  0  0
   22.5466    0.6693   17.2145 H   0  0  0  0  0
   24.5334    2.4162   16.9630 H   0  0  0  0  0
   22.1923    5.5110   15.2230 H   0  0  0  0  0
   18.4450    4.8090   19.4182 H   0  0  0  0  0
   19.2691    6.9339   19.7425 H   0  0  0  0  0
   20.1321    6.9511   18.1673 H   0  0  0  0  0
   20.9641    5.7006   20.7986 H   0  0  0  0  0
   21.9339    6.6706   19.6387 H   0  0  0  0  0
   22.1020    3.9913   19.6128 H   0  0  0  0  0
   22.0547    4.9050   18.0671 H   0  0  0  0  0
   19.8213    4.2581   16.2205 H   0  0  0  0  0
   18.4784    6.3878   14.9166 H   0  0  0  0  0
   19.4288    3.6797   13.8520 H   0  0  0  0  0
   20.4159    5.1730   14.0011 H   0  0  0  0  0
   18.7974    6.3097   12.4403 H   0  0  0  0  0
   17.9958    4.7204   12.1993 H   0  0  0  0  0
   18.5002    4.4176   10.0395 H   0  0  0  0  0
   20.1206    4.2341    9.4558 H   0  0  0  0  0
   17.2239    3.0650   15.6096 H   0  0  0  0  0
   14.6070    4.2088   14.8210 H   0  0  0  0  0
   14.0273    1.9251   13.7448 H   0  0  0  0  0
   15.7983    1.6339   13.6729 H   0  0  0  0  0
   16.7913    2.3140   11.8250 H   0  0  0  0  0
   16.1806    3.5267   10.7497 H   0  0  0  0  0
   13.0480    3.4593   15.7302 H   0  0  0  0  0
   11.6634    2.9691   17.3998 H   0  0  0  0  0
   11.8783    1.0185   15.6952 H   0  0  0  0  0
   10.8025    0.8219   18.3344 H   0  0  0  0  0
   12.2580   -1.2151   17.1798 H   0  0  0  0  0
   13.5899   -0.1796   17.7964 H   0  0  0  0  0
   13.4610   -0.5248   16.0383 H   0  0  0  0  0
   24.1023   -5.9200   19.3366 H   0  0  0  0  0
   22.9890   -5.9347   18.1243 H   0  0  0  0  0
   24.5138    4.8101   15.9533 H   0  0  0  0  0
  3  2  1  0  0  0
  2  5  1  0  0  0
  2  1  1  0  0  0
  5  6  1  0  0  0
  6  8  4  0  0  0
  6  7  4  0  0  0
  7  9  4  0  0  0
  9 11  4  0  0  0
 10 11  4  0  0  0
  8 10  4  0  0  0
  3  4  2  0  0  0
 14 13  1  0  0  0
 13 16  1  0  0  0
 13 12  1  0  0  0
 16 17  1  0  0  0
 14 15  2  0  0  0
 20 19  1  0  0  0
 19 22  1  0  0  0
 19 18  1  0  0  0
 22 23  1  0  0  0
 23 25  2  0  0  0
 23 24  1  0  0  0
 24 26  2  0  0  0
 26 27  1  0  0  0
 25 27  1  0  0  0
 20 21  2  0  0  0
 29 28  1  0  0  0
 29 32  1  0  0  0
 30 29  1  0  0  0
 30 31  2  0  0  0
 32 33  1  0  0  0
 33 34  1  0  0  0
 28 34  1  0  0  0
 37 36  1  0  0  0
 36 39  1  0  0  0
 36 35  1  0  0  0
 39 40  1  0  0  0
 40 41  1  0  0  0
 41 42  2  0  0  0
 41 43  1  0  0  0
 37 38  2  0  0  0
 46 45  1  0  0  0
 45 48  1  0  0  0
 45 44  1  0  0  0
 48 49  1  0  0  0
 49 50  2  0  0  0
 49 51  1  0  0  0
 46 47  2  0  0  0
 53 54  1  0  0  0
 53 56  1  0  0  0
 52 53  1  0  0  0
 56 57  1  0  0  0
 56 58  1  0  0  0
 54 59  2  0  0  0
 54 55  1  0  0  0
 12  3  1  0  0  0
 18 14  1  0  0  0
 28 20  1  0  0  0
 35 30  1  0  0  0
 44 37  1  0  0  0
 46 52  1  0  0  0
  1 60  1  0  0  0
  2 61  1  0  0  0
  5 62  1  0  0  0
  5 63  1  0  0  0
  7 64  1  0  0  0
  8 65  1  0  0  0
  9 66  1  0  0  0
 10 67  1  0  0  0
 11 68  1  0  0  0
 12 69  1  0  0  0
 13 70  1  0  0  0
 16 71  1  0  0  0
 16 72  1  0  0  0
 17 73  1  0  0  0
 18 74  1  0  0  0
 19 75  1  0  0  0
 22 76  1  0  0  0
 22 77  1  0  0  0
 25 78  1  0  0  0
 26 79  1  0  0  0
 29 80  1  0  0  0
 32 81  1  0  0  0
 32 82  1  0  0  0
 33 83  1  0  0  0
 33 84  1  0  0  0
 34 85  1  0  0  0
 34 86  1  0  0  0
 35 87  1  0  0  0
 36 88  1  0  0  0
 39 89  1  0  0  0
 39 90  1  0  0  0
 40 91  1  0  0  0
 40 92  1  0  0  0
 43 93  1  0  0  0
 43 94  1  0  0  0
 44 95  1  0  0  0
 45 96  1  0  0  0
 48 97  1  0  0  0
 48 98  1  0  0  0
 51 99  1  0  0  0
 51100  1  0  0  0
 52101  1  0  0  0
 53102  1  0  0  0
 56103  1  0  0  0
 57104  1  0  0  0
 58105  1  0  0  0
 58106  1  0  0  0
 58107  1  0  0  0
  1108  1  0  0  0
  1109  1  0  0  0
 27110  1  0  0  0
M  END
$$$$
