1hyo_ligand
  -I-interpret- 

 18 17  0  0  0  0  0  0  0  0999 V2000
   48.2197   41.6593   61.3419 H   0  0  0  0  0
   49.4482   42.9639   61.2168 H   0  0  0  0  0
   47.5706   40.8531   59.4095 H   0  0  0  0  0
   47.6632   41.7874   57.8781 H   0  0  0  0  0
   43.7692   40.6348   58.7427 H   0  0  0  0  0
   45.2149   39.9098   59.5243 H   0  0  0  0  0
   45.2060   40.2080   57.7529 H   0  0  0  0  0
   47.4330   44.7450   61.8840 O   0  5  0  0  0
   47.6030   43.5510   62.1160 C   0  0  0  0  0
   47.1170   43.1040   63.1270 O   0  0  0  0  0
   48.3800   42.7230   61.1120 C   0  0  0  0  0
   47.9740   42.9670   59.6700 C   0  0  0  0  0
   48.0730   43.9910   59.0670 O   0  0  0  0  0
   47.3170   41.8060   58.9220 C   0  0  0  0  0
   45.4820   42.0780   58.9770 P   0  0  0  0  0
   45.1150   43.0380   57.9080 O   0  5  0  0  0
   45.1120   42.5280   60.3260 O   0  0  0  0  0
   44.8680   40.5860   58.7290 C   0  0  0  0  0
 11  1  1  0  0  0
 11  2  1  0  0  0
 14  3  1  0  0  0
 14  4  1  0  0  0
 18  5  1  0  0  0
 18  6  1  0  0  0
 18  7  1  0  0  0
  9  8  1  0  0  0
 11  9  1  0  0  0
  9 10  2  0  0  0
 12 11  1  0  0  0
 14 12  1  0  0  0
 12 13  2  0  0  0
 15 14  1  0  0  0
 15 18  1  0  0  0
 15 17  2  0  0  0
 15 16  1  0  0  0
M  END
$$$$
