### 
### Created by X-TOOL on Mon Oct 24 21:53:43 2005
### 

@<TRIPOS>MOLECULE
1hyo_ligand
   18    17     1     0     0
SMALL
GAST_HUCK


@<TRIPOS>ATOM
      1 H111       48.2197   41.6593   61.3419 H         1 SUB1        0.071
      2 H112       49.4482   42.9639   61.2168 H         1 SUB1        0.071
      3 H141       47.5706   40.8531   59.4095 H         1 SUB1        0.056
      4 H142       47.6632   41.7874   57.8781 H         1 SUB1        0.056
      5 H181       43.7692   40.6348   58.7427 H         1 SUB1        0.029
      6 H182       45.2149   39.9098   59.5243 H         1 SUB1        0.029
      7 H183       45.2060   40.2080   57.7529 H         1 SUB1        0.029
      8 O1         47.4330   44.7450   61.8840 O.co2     1 SUB1       -0.563
      9 C2         47.6030   43.5510   62.1160 C.2       1 SUB1        0.046
     10 O3         47.1170   43.1040   63.1270 O.co2     1 SUB1       -0.563
     11 C4         48.3800   42.7230   61.1120 C.3       1 SUB1        0.060
     12 C5         47.9740   42.9670   59.6700 C.2       1 SUB1        0.124
     13 O8         48.0730   43.9910   59.0670 O.2       1 SUB1       -0.386
     14 C9         47.3170   41.8060   58.9220 C.3       1 SUB1        0.060
     15 P10        45.4820   42.0780   58.9770 P.3       1 SUB1        0.015
     16 O13        45.1150   43.0380   57.9080 O.co2     1 SUB1       -0.554
     17 O14        45.1120   42.5280   60.3260 O.co2     1 SUB1       -0.554
     18 C15        44.8680   40.5860   58.7290 C.3       1 SUB1       -0.026
@<TRIPOS>BOND
     1   11    1 1  
     2   11    2 1  
     3   14    3 1  
     4   14    4 1  
     5   18    5 1  
     6   18    6 1  
     7   18    7 1  
     8    9    8 2  
     9   11    9 1  
    10    9   10 2  
    11   12   11 1  
    12   14   12 1  
    13   12   13 2  
    14   15   14 1  
    15   15   18 1  
    16   15   17 2  
    17   15   16 2  
@<TRIPOS>SUBSTRUCTURE
     1 SUB1        1 GROUP

