### 
### Created by X-TOOL on Mon Oct 24 22:30:19 2005
### 

@<TRIPOS>MOLECULE
1f2o_ligand
   22    21     1     0     0
SMALL
GAST_HUCK


@<TRIPOS>ATOM
      1 N          16.2930   15.9070   52.1230 N.4       1 SUB1        0.238
      2 CA         15.1210   16.7720   51.8040 C.3       1 SUB1        0.015
      3 C          13.8650   15.9750   51.5170 C.2       1 SUB1        0.076
      4 O          12.8080   16.5760   51.6430 O.co2     1 SUB1       -0.561
      5 CB         15.3950   17.6570   50.5750 C.3       1 SUB1        0.004
      6 CG         16.4070   18.7980   50.6320 C.3       1 SUB1       -0.039
      7 CD1        16.3980   19.3950   52.0650 C.3       1 SUB1       -0.062
      8 CD2        17.7920   18.2470   50.2100 C.3       1 SUB1       -0.062
      9 OXT        13.8770   14.7860   51.2110 O.co2     1 SUB1       -0.561
     10 H11        15.9980   14.9441   52.1662 H         1 SUB1        0.202
     11 H21        14.9343   17.4192   52.6736 H         1 SUB1        0.107
     12 H51        14.4318   18.1084   50.2949 H         1 SUB1        0.036
     13 H52        15.7306   16.9824   49.7736 H         1 SUB1        0.036
     14 H61        16.1125   19.5857   49.9229 H         1 SUB1        0.030
     15 H71        15.3947   19.7834   52.2941 H         1 SUB1        0.023
     16 H72        17.1306   20.2133   52.1260 H         1 SUB1        0.023
     17 H73        16.6624   18.6115   52.7904 H         1 SUB1        0.023
     18 H81        18.0970   17.4507   50.9049 H         1 SUB1        0.023
     19 H82        18.5331   19.0595   50.2354 H         1 SUB1        0.023
     20 H83        17.7294   17.8396   49.1902 H         1 SUB1        0.023
     21 H12        16.6799   16.1801   53.0128 H         1 SUB1        0.202
     22 H13        16.9933   16.0120   51.4056 H         1 SUB1        0.202
@<TRIPOS>BOND
     1    2    3 1  
     2    2    5 1  
     3    2    1 1  
     4    5    6 1  
     5    6    8 1  
     6    6    7 1  
     7    3    9 2  
     8    3    4 2  
     9    1   10 1  
    10    2   11 1  
    11    5   12 1  
    12    5   13 1  
    13    6   14 1  
    14    7   15 1  
    15    7   16 1  
    16    7   17 1  
    17    8   18 1  
    18    8   19 1  
    19    8   20 1  
    20    1   21 1  
    21    1   22 1  
@<TRIPOS>SUBSTRUCTURE
     1 SUB1        1 GROUP

