1f2o_ligand
  -I-interpret- 

 22 21  0  0  0  0  0  0  0  0999 V2000
   16.2930   15.9070   52.1230 N   0  3  0  0  0
   15.1210   16.7720   51.8040 C   0  0  0  0  0
   13.8650   15.9750   51.5170 C   0  0  0  0  0
   12.8080   16.5760   51.6430 O   0  0  0  0  0
   15.3950   17.6570   50.5750 C   0  0  0  0  0
   16.4070   18.7980   50.6320 C   0  0  0  0  0
   16.3980   19.3950   52.0650 C   0  0  0  0  0
   17.7920   18.2470   50.2100 C   0  0  0  0  0
   13.8770   14.7860   51.2110 O   0  5  0  0  0
   15.9980   14.9441   52.1662 H   0  0  0  0  0
   14.9343   17.4192   52.6736 H   0  0  0  0  0
   14.4318   18.1084   50.2949 H   0  0  0  0  0
   15.7306   16.9824   49.7736 H   0  0  0  0  0
   16.1125   19.5857   49.9229 H   0  0  0  0  0
   15.3947   19.7834   52.2941 H   0  0  0  0  0
   17.1306   20.2133   52.1260 H   0  0  0  0  0
   16.6624   18.6115   52.7904 H   0  0  0  0  0
   18.0970   17.4507   50.9049 H   0  0  0  0  0
   18.5331   19.0595   50.2354 H   0  0  0  0  0
   17.7294   17.8396   49.1902 H   0  0  0  0  0
   16.6799   16.1801   53.0128 H   0  0  0  0  0
   16.9933   16.0120   51.4056 H   0  0  0  0  0
  2  3  1  0  0  0
  2  5  1  0  0  0
  2  1  1  0  0  0
  5  6  1  0  0  0
  6  8  1  0  0  0
  6  7  1  0  0  0
  3  9  1  0  0  0
  3  4  2  0  0  0
  1 10  1  0  0  0
  2 11  1  0  0  0
  5 12  1  0  0  0
  5 13  1  0  0  0
  6 14  1  0  0  0
  7 15  1  0  0  0
  7 16  1  0  0  0
  7 17  1  0  0  0
  8 18  1  0  0  0
  8 19  1  0  0  0
  8 20  1  0  0  0
  1 21  1  0  0  0
  1 22  1  0  0  0
M  END
$$$$
