1qpb_ligand
  -I-interpret- 

 11 10  0  0  0  0  0  0  0  0999 V2000
   82.9990   56.8860   17.2360 C   0  0  0  0  0
   82.0260   57.0570   18.0540 N   0  0  0  0  0
   83.2360   55.7190   16.7440 O   0  0  0  0  0
   83.7870   57.9910   16.8900 C   0  0  0  0  0
   83.6450   59.1400   17.3020 O   0  0  0  0  0
   84.8470   58.1110   16.0790 C   0  0  0  0  0
   81.8455   57.9644   18.4336 H   0  0  0  0  0
   81.4479   56.2829   18.3122 H   0  0  0  0  0
   85.1876   59.1569   16.0732 H   0  0  0  0  0
   84.5640   57.8119   15.0590 H   0  0  0  0  0
   85.6595   57.4628   16.4391 H   0  0  0  0  0
  1  2  1  0  0  0
  1  3  2  0  0  0
  1  4  1  0  0  0
  4  5  2  0  0  0
  4  6  1  0  0  0
  2  7  1  0  0  0
  2  8  1  0  0  0
  6  9  1  0  0  0
  6 10  1  0  0  0
  6 11  1  0  0  0
M  END
$$$$
