### 
### Created by X-TOOL on Tue Oct 25 02:36:08 2005
### 

@<TRIPOS>MOLECULE
1c70_ligand
   96   101     1     0     0
SMALL
GAST_HUCK


@<TRIPOS>ATOM
      1 N1          9.2130   23.9200    2.6960 N.3       1 SUB1       -0.282
      2 C1          9.2320   23.8990    4.1620 C.3       1 SUB1        0.034
      3 C2         10.3950   24.7820    4.6440 C.3       1 SUB1        0.114
      4 C3         10.3890   24.8560    6.1620 C.2       1 SUB1        0.195
      5 O1         10.7510   23.8540    6.8230 O.2       1 SUB1       -0.395
      6 N2         10.0480   26.0520    6.6740 N.am      1 SUB1       -0.280
      7 C4         10.0400   26.3380    8.1330 C.3       1 SUB1        0.045
      8 C5          9.5350   27.7760    8.3410 C.3       1 SUB1       -0.040
      9 C6         11.4640   26.2560    8.6960 C.3       1 SUB1       -0.040
     10 C7          9.0790   25.3510    8.8630 C.3       1 SUB1       -0.040
     11 N3         11.6710   24.2400    4.1300 N.3       1 SUB1       -0.278
     12 C8         11.6610   24.1760    2.6430 C.3       1 SUB1        0.014
     13 C9         10.4460   23.3390    2.1640 C.3       1 SUB1        0.015
     14 C10        12.7950   25.0880    4.5620 C.3       1 SUB1        0.028
     15 C11        13.9980   24.2240    4.8280 C.3       1 SUB1        0.071
     16 O2         15.1190   24.9000    4.3380 O.3       1 SUB1       -0.390
     17 C12        14.2440   23.9660    6.2840 C.3       1 SUB1       -0.004
     18 C13        15.4490   23.1300    6.7380 C.3       1 SUB1        0.061
     19 C14        15.5560   23.1740    8.2650 C.3       1 SUB1        0.001
     20 C15        16.5840   22.1750    8.8200 C.ar      1 SUB1       -0.041
     21 C16        17.9720   22.3160    8.5250 C.ar      1 SUB1       -0.060
     22 C17        18.8750   21.4040    9.0630 C.ar      1 SUB1       -0.069
     23 C18        18.4030   20.3540    9.8720 C.ar      1 SUB1       -0.069
     24 C19        17.0430   20.1910   10.1550 C.ar      1 SUB1       -0.069
     25 C20        16.1260   21.1030    9.6350 C.ar      1 SUB1       -0.060
     26 C21        15.3170   21.6910    6.2250 C.2       1 SUB1        0.183
     27 O3         14.2920   21.0510    6.4710 O.2       1 SUB1       -0.396
     28 N4         16.3950   21.2200    5.5770 N.am      1 SUB1       -0.271
     29 C22        16.5420   19.7620    5.4030 C.3       1 SUB1        0.101
     30 C23        17.9850   19.3260    5.8830 C.3       1 SUB1        0.095
     31 O4         18.9080   20.2670    5.3540 O.3       1 SUB1       -0.386
     32 C24        18.1730   18.0050    5.0670 C.3       1 SUB1        0.009
     33 C25        17.3740   18.2930    3.8190 C.ar      1 SUB1       -0.036
     34 C26        17.6360   17.7740    2.5530 C.ar      1 SUB1       -0.067
     35 C27        16.9120   18.2950    1.4880 C.ar      1 SUB1       -0.075
     36 C28        15.9700   19.3330    1.7130 C.ar      1 SUB1       -0.075
     37 C29        15.7440   19.8340    2.9960 C.ar      1 SUB1       -0.065
     38 C30        16.5100   19.3110    4.0150 C.ar      1 SUB1       -0.013
     39 C31         8.0010   23.2110    2.1710 C.3       1 SUB1        0.069
     40 C32         8.9420   17.2010    2.1820 C.ar      1 SUB1       -0.077
     41 C33         9.5700   18.4780    1.9380 C.ar      1 SUB1       -0.035
     42 C34         8.7650   19.6210    2.1370 C.ar      1 SUB1        0.120
     43 C35         7.4530   19.5700    2.5920 C.ar      1 SUB1       -0.023
     44 C36         6.7990   18.3310    2.7810 C.ar      1 SUB1       -0.077
     45 C37         7.5540   17.1370    2.5700 C.ar      1 SUB1       -0.081
     46 O5          9.1560   20.8990    1.9530 O.3       1 SUB1       -0.249
     47 C38         8.0760   21.6860    2.3730 C.2       1 SUB1        0.118
     48 C39         6.9360   20.8970    2.8340 C.2       1 SUB1       -0.049
     49 H21         9.3763   22.8680    4.5171 H         1 SUB1        0.047
     50 H22         8.2812   24.2914    4.5517 H         1 SUB1        0.047
     51 H31        10.2605   25.7981    4.2448 H         1 SUB1        0.072
     52 H61         9.7876   26.7834    6.0437 H         1 SUB1        0.186
     53 H81         9.5215   28.0079    9.4162 H         1 SUB1        0.025
     54 H82         8.5179   27.8701    7.9328 H         1 SUB1        0.025
     55 H83        10.2045   28.4783    7.8228 H         1 SUB1        0.025
     56 H91        11.4445   26.4693    9.7749 H         1 SUB1        0.025
     57 H92        12.1023   26.9938    8.1879 H         1 SUB1        0.025
     58 H93        11.8667   25.2461    8.5292 H         1 SUB1        0.025
     59 H101        9.0790   25.5693    9.9411 H         1 SUB1        0.025
     60 H102        9.4196   24.3182    8.6981 H         1 SUB1        0.025
     61 H103        8.0604   25.4692    8.4650 H         1 SUB1        0.025
     62 H121       12.5908   23.7053    2.2910 H         1 SUB1        0.044
     63 H122       11.5877   25.1943    2.2336 H         1 SUB1        0.044
     64 H131       10.4086   23.3430    1.0647 H         1 SUB1        0.044
     65 H132       10.5488   22.3046    2.5236 H         1 SUB1        0.044
     66 H141       12.5179   25.6247    5.4813 H         1 SUB1        0.045
     67 H142       13.0323   25.8143    3.7707 H         1 SUB1        0.045
     68 H151       13.8719   23.2632    4.3075 H         1 SUB1        0.061
     69 H161       14.9988   25.0815    3.4133 H         1 SUB1        0.210
     70 H171       13.3469   23.4596    6.6696 H         1 SUB1        0.032
     71 H172       14.3449   24.9501    6.7651 H         1 SUB1        0.032
     72 H181       16.3638   23.5674    6.3116 H         1 SUB1        0.056
     73 H191       14.5706   22.9383    8.6932 H         1 SUB1        0.045
     74 H192       15.8539   24.1889    8.5672 H         1 SUB1        0.045
     75 H211       18.3192   23.1230    7.8900 H         1 SUB1        0.056
     76 H221       19.9353   21.5019    8.8601 H         1 SUB1        0.060
     77 H231       19.1147   19.6503   10.2884 H         1 SUB1        0.056
     78 H241       16.7061   19.3653   10.7713 H         1 SUB1        0.060
     79 H251       15.0691   20.9958    9.8507 H         1 SUB1        0.056
     80 H281       17.0866   21.8470    5.2184 H         1 SUB1        0.188
     81 H291       15.7585   19.2532    5.9837 H         1 SUB1        0.073
     82 H301       18.0780   19.2014    6.9720 H         1 SUB1        0.066
     83 H311       18.8261   21.0882    5.8246 H         1 SUB1        0.210
     84 H321       17.7681   17.1383    5.6100 H         1 SUB1        0.044
     85 H322       19.2327   17.8277    4.8314 H         1 SUB1        0.044
     86 H341       18.3751   16.9950    2.4049 H         1 SUB1        0.054
     87 H351       17.0661   17.9095    0.4866 H         1 SUB1        0.054
     88 H361       15.4176   19.7429    0.8752 H         1 SUB1        0.054
     89 H371       14.9997   20.5997    3.1823 H         1 SUB1        0.054
     90 H391        7.9084   23.4201    1.0950 H         1 SUB1        0.065
     91 H392        7.1135   23.5932    2.6966 H         1 SUB1        0.065
     92 H401        9.5153   16.2874    2.0733 H         1 SUB1        0.051
     93 H411       10.6032   18.5551    1.6194 H         1 SUB1        0.055
     94 H441        5.7570   18.2884    3.0768 H         1 SUB1        0.052
     95 H451        7.0787   16.1719    2.7029 H         1 SUB1        0.052
     96 H481        5.9775   21.2158    3.2408 H         1 SUB1        0.021
@<TRIPOS>BOND
     1    1   39 1  
     2    1   13 1  
     3    1    2 1  
     4    2    3 1  
     5    3   11 1  
     6    3    4 1  
     7    4    6 am 
     8    4    5 2  
     9    6    7 1  
    10    7   10 1  
    11    7    9 1  
    12    7    8 1  
    13   11   14 1  
    14   11   12 1  
    15   12   13 1  
    16   14   15 1  
    17   15   17 1  
    18   15   16 1  
    19   17   18 1  
    20   18   26 1  
    21   18   19 1  
    22   19   20 1  
    23   20   25 ar 
    24   20   21 ar 
    25   21   22 ar 
    26   22   23 ar 
    27   23   24 ar 
    28   24   25 ar 
    29   26   28 am 
    30   26   27 2  
    31   28   29 1  
    32   29   38 1  
    33   29   30 1  
    34   30   32 1  
    35   30   31 1  
    36   32   33 1  
    37   33   38 ar 
    38   33   34 ar 
    39   34   35 ar 
    40   35   36 ar 
    41   36   37 ar 
    42   37   38 ar 
    43   39   47 1  
    44   47   48 2  
    45   47   46 1  
    46   46   42 1  
    47   42   43 ar 
    48   42   41 ar 
    49   41   40 ar 
    50   40   45 ar 
    51   45   44 ar 
    52   44   43 ar 
    53   43   48 1  
    54    2   49 1  
    55    2   50 1  
    56    3   51 1  
    57    6   52 1  
    58    8   53 1  
    59    8   54 1  
    60    8   55 1  
    61    9   56 1  
    62    9   57 1  
    63    9   58 1  
    64   10   59 1  
    65   10   60 1  
    66   10   61 1  
    67   12   62 1  
    68   12   63 1  
    69   13   64 1  
    70   13   65 1  
    71   14   66 1  
    72   14   67 1  
    73   15   68 1  
    74   16   69 1  
    75   17   70 1  
    76   17   71 1  
    77   18   72 1  
    78   19   73 1  
    79   19   74 1  
    80   21   75 1  
    81   22   76 1  
    82   23   77 1  
    83   24   78 1  
    84   25   79 1  
    85   28   80 1  
    86   29   81 1  
    87   30   82 1  
    88   31   83 1  
    89   32   84 1  
    90   32   85 1  
    91   34   86 1  
    92   35   87 1  
    93   36   88 1  
    94   37   89 1  
    95   39   90 1  
    96   39   91 1  
    97   40   92 1  
    98   41   93 1  
    99   44   94 1  
   100   45   95 1  
   101   48   96 1  
@<TRIPOS>SUBSTRUCTURE
     1 SUB1        1 GROUP

