### 
### Created by X-TOOL on Tue Oct 25 02:21:46 2005
### 

@<TRIPOS>MOLECULE
1k1y_ligand
   87    90     1     0     0
SMALL
GAST_HUCK


@<TRIPOS>ATOM
      1 C1A        -2.3020   58.4640   91.4770 C.3       1 SUB1        0.043
      2 C2A        -1.8660   59.5760   90.3780 C.3       1 SUB1        0.103
      3 C3A        -0.8760   60.5950   91.0570 C.3       1 SUB1        0.118
      4 C4A        -1.6140   61.3480   92.2200 C.3       1 SUB1        0.111
      5 C5A        -2.4050   60.4240   93.1780 C.2       1 SUB1       -0.024
      6 C6A        -2.8700   60.9790   94.5230 C.3       1 SUB1        0.072
      7 C7A        -2.7130   59.1290   92.8200 C.2       1 SUB1       -0.085
      8 O2A        -1.2660   58.9040   89.3080 O.3       1 SUB1       -0.386
      9 O3A        -0.4630   61.5620   90.1130 O.3       1 SUB1       -0.384
     10 O4A        -0.6090   62.2080   92.8250 O.3       1 SUB1       -0.378
     11 O6A        -3.9460   61.9000   94.2730 O.3       1 SUB1       -0.384
     12 C1B        -0.7920   53.2100   92.2520 C.3       1 SUB1        0.188
     13 C2B        -1.0570   53.8110   90.8370 C.3       1 SUB1        0.133
     14 C3B        -0.6710   55.3020   90.7580 C.3       1 SUB1        0.104
     15 C4B        -1.4690   56.0850   91.8370 C.3       1 SUB1        0.064
     16 C5B        -1.0590   55.4950   93.2600 C.3       1 SUB1        0.077
     17 C6B        -1.7620   56.1580   94.4310 C.3       1 SUB1       -0.037
     18 N4B        -1.1460   57.5380   91.7470 N.3       1 SUB1       -0.299
     19 O2B        -0.3830   53.0070   89.8790 O.3       1 SUB1       -0.384
     20 O3B        -0.9700   55.7690   89.4390 O.3       1 SUB1       -0.387
     21 O5B        -1.3880   54.0240   93.2990 O.3       1 SUB1       -0.344
     22 C1C         3.2500   50.7820   94.9360 C.3       1 SUB1        0.188
     23 C2C         3.0790   50.4450   93.4210 C.3       1 SUB1        0.134
     24 C3C         2.4910   51.6670   92.6720 C.3       1 SUB1        0.114
     25 C4C         1.1030   51.9910   93.3180 C.3       1 SUB1        0.118
     26 C5C         1.3890   52.3810   94.8090 C.3       1 SUB1        0.113
     27 C6C         0.0970   52.7070   95.5950 C.3       1 SUB1        0.073
     28 O2C         4.3410   50.0470   92.9060 O.3       1 SUB1       -0.384
     29 O3C         2.3500   51.2870   91.3140 O.3       1 SUB1       -0.386
     30 O4C         0.4840   53.1440   92.7350 O.3       1 SUB1       -0.340
     31 O5C         2.0160   51.2480   95.5000 O.3       1 SUB1       -0.340
     32 O6C         0.3750   53.0740   96.9260 O.3       1 SUB1       -0.392
     33 C1D         7.3020   52.4550   98.0040 C.3       1 SUB1        0.185
     34 C2D         7.0760   50.9960   97.4840 C.3       1 SUB1        0.134
     35 C3D         6.3180   51.0190   96.1540 C.3       1 SUB1        0.114
     36 C4D         4.9660   51.7240   96.3640 C.3       1 SUB1        0.118
     37 C5D         5.2210   53.2140   96.8690 C.3       1 SUB1        0.113
     38 C6D         3.9260   54.0020   97.1230 C.3       1 SUB1        0.073
     39 O1D         8.1320   53.1600   97.1290 O.3       1 SUB1       -0.365
     40 O2D         8.3540   50.3510   97.3380 O.3       1 SUB1       -0.384
     41 O3D         6.1230   49.6580   95.7030 O.3       1 SUB1       -0.386
     42 O4D         4.2330   51.7500   95.1130 O.3       1 SUB1       -0.340
     43 O5D         6.0000   53.1740   98.1390 O.3       1 SUB1       -0.341
     44 O6D         3.1700   53.4700   98.2160 O.3       1 SUB1       -0.392
     45 H11        -3.1439   57.8751   91.0840 H         1 SUB1        0.056
     46 H21        -2.7501   60.1135   90.0046 H         1 SUB1        0.065
     47 H31         0.0066   60.0634   91.4423 H         1 SUB1        0.067
     48 H41        -2.3607   62.0170   91.7676 H         1 SUB1        0.077
     49 H61        -3.2322   60.1633   95.1659 H         1 SUB1        0.071
     50 H62        -2.0453   61.5105   95.0203 H         1 SUB1        0.071
     51 H71        -3.2843   58.5301   93.5278 H         1 SUB1        0.026
     52 H81        -0.9911   59.5351   88.6533 H         1 SUB1        0.210
     53 H91         0.1239   62.1808   90.5313 H         1 SUB1        0.210
     54 H101       -0.1894   62.7270   92.1489 H         1 SUB1        0.213
     55 H111       -4.2522   62.2589   95.0976 H         1 SUB1        0.213
     56 H121       -1.2129   52.1938   92.2536 H         1 SUB1        0.094
     57 H131       -2.1334   53.7363   90.6230 H         1 SUB1        0.067
     58 H141        0.4073   55.4255   90.9365 H         1 SUB1        0.064
     59 H151       -2.5498   55.9595   91.6758 H         1 SUB1        0.051
     60 H161        0.0270   55.6152   93.3866 H         1 SUB1        0.061
     61 H171       -1.4198   55.6899   95.3658 H         1 SUB1        0.025
     62 H172       -1.5177   57.2302   94.4570 H         1 SUB1        0.025
     63 H173       -2.8499   56.0233   94.3404 H         1 SUB1        0.025
     64 H181       -0.4283   57.6555   90.9486 H         1 SUB1        0.124
     65 H191       -0.5951   53.3130   89.0050 H         1 SUB1        0.210
     66 H201       -0.7436   56.6891   89.3711 H         1 SUB1        0.210
     67 H221        3.5676   49.8732   95.4681 H         1 SUB1        0.094
     68 H231        2.3870   49.5973   93.3095 H         1 SUB1        0.067
     69 H241        3.1594   52.5379   92.7406 H         1 SUB1        0.065
     70 H251        0.4267   51.1271   93.2387 H         1 SUB1        0.065
     71 H261        2.0692   53.2451   94.8334 H         1 SUB1        0.065
     72 H271       -0.4231   53.5444   95.1070 H         1 SUB1        0.058
     73 H272       -0.5526   51.8194   95.6097 H         1 SUB1        0.058
     74 H281        4.9567   50.7657   92.9892 H         1 SUB1        0.210
     75 H291        3.2062   51.0968   90.9490 H         1 SUB1        0.210
     76 H321        0.8196   52.3580   97.3645 H         1 SUB1        0.209
     77 H331        7.7735   52.4127   98.9969 H         1 SUB1        0.094
     78 H341        6.4884   50.4307   98.2223 H         1 SUB1        0.067
     79 H351        6.9035   51.5587   95.3951 H         1 SUB1        0.065
     80 H361        4.3707   51.1751   97.1085 H         1 SUB1        0.065
     81 H371        5.8155   53.7446   96.1107 H         1 SUB1        0.065
     82 H381        4.1801   55.0461   97.3581 H         1 SUB1        0.058
     83 H382        3.2980   53.9629   96.2208 H         1 SUB1        0.058
     84 H391        8.9604   52.7030   97.0428 H         1 SUB1        0.213
     85 H401        8.8743   50.8228   96.6983 H         1 SUB1        0.210
     86 H411        5.6486   49.6632   94.8799 H         1 SUB1        0.210
     87 H441        3.6942   53.5024   99.0076 H         1 SUB1        0.209
@<TRIPOS>BOND
     1    1    2 1  
     2    1    7 1  
     3   18    1 1  
     4    2    3 1  
     5    2    8 1  
     6    3    4 1  
     7    3    9 1  
     8    5    4 1  
     9    4   10 1  
    10    5    6 1  
    11    7    5 2  
    12    6   11 1  
    13   12   13 1  
    14   13   14 1  
    15   14   15 1  
    16   16   15 1  
    17   15   18 1  
    18   16   17 1  
    19   21   16 1  
    20   13   19 1  
    21   14   20 1  
    22   12   21 1  
    23   22   23 1  
    24   22   31 1  
    25   42   22 1  
    26   23   24 1  
    27   23   28 1  
    28   24   25 1  
    29   24   29 1  
    30   26   25 1  
    31   25   30 1  
    32   26   27 1  
    33   31   26 1  
    34   27   32 1  
    35   30   12 1  
    36   34   33 1  
    37   33   39 1  
    38   35   34 1  
    39   34   40 1  
    40   36   35 1  
    41   35   41 1  
    42   36   37 1  
    43   42   36 1  
    44   37   38 1  
    45   37   43 1  
    46   38   44 1  
    47   43   33 1  
    48    1   45 1  
    49    2   46 1  
    50    3   47 1  
    51    4   48 1  
    52    6   49 1  
    53    6   50 1  
    54    7   51 1  
    55    8   52 1  
    56    9   53 1  
    57   10   54 1  
    58   11   55 1  
    59   12   56 1  
    60   13   57 1  
    61   14   58 1  
    62   15   59 1  
    63   16   60 1  
    64   17   61 1  
    65   17   62 1  
    66   17   63 1  
    67   18   64 1  
    68   19   65 1  
    69   20   66 1  
    70   22   67 1  
    71   23   68 1  
    72   24   69 1  
    73   25   70 1  
    74   26   71 1  
    75   27   72 1  
    76   27   73 1  
    77   28   74 1  
    78   29   75 1  
    79   32   76 1  
    80   33   77 1  
    81   34   78 1  
    82   35   79 1  
    83   36   80 1  
    84   37   81 1  
    85   38   82 1  
    86   38   83 1  
    87   39   84 1  
    88   40   85 1  
    89   41   86 1  
    90   44   87 1  
@<TRIPOS>SUBSTRUCTURE
     1 SUB1        1 GROUP

