1k1y_ligand
  -I-interpret- 

 87 90  0  0  0  0  0  0  0  0999 V2000
   -2.3020   58.4640   91.4770 C   0  0  0  0  0
   -1.8660   59.5760   90.3780 C   0  0  0  0  0
   -0.8760   60.5950   91.0570 C   0  0  0  0  0
   -1.6140   61.3480   92.2200 C   0  0  0  0  0
   -2.4050   60.4240   93.1780 C   0  0  0  0  0
   -2.8700   60.9790   94.5230 C   0  0  0  0  0
   -2.7130   59.1290   92.8200 C   0  0  0  0  0
   -1.2660   58.9040   89.3080 O   0  0  0  0  0
   -0.4630   61.5620   90.1130 O   0  0  0  0  0
   -0.6090   62.2080   92.8250 O   0  0  0  0  0
   -3.9460   61.9000   94.2730 O   0  0  0  0  0
   -0.7920   53.2100   92.2520 C   0  0  0  0  0
   -1.0570   53.8110   90.8370 C   0  0  0  0  0
   -0.6710   55.3020   90.7580 C   0  0  0  0  0
   -1.4690   56.0850   91.8370 C   0  0  0  0  0
   -1.0590   55.4950   93.2600 C   0  0  0  0  0
   -1.7620   56.1580   94.4310 C   0  0  0  0  0
   -1.1460   57.5380   91.7470 N   0  0  0  0  0
   -0.3830   53.0070   89.8790 O   0  0  0  0  0
   -0.9700   55.7690   89.4390 O   0  0  0  0  0
   -1.3880   54.0240   93.2990 O   0  0  0  0  0
    3.2500   50.7820   94.9360 C   0  0  0  0  0
    3.0790   50.4450   93.4210 C   0  0  0  0  0
    2.4910   51.6670   92.6720 C   0  0  0  0  0
    1.1030   51.9910   93.3180 C   0  0  0  0  0
    1.3890   52.3810   94.8090 C   0  0  0  0  0
    0.0970   52.7070   95.5950 C   0  0  0  0  0
    4.3410   50.0470   92.9060 O   0  0  0  0  0
    2.3500   51.2870   91.3140 O   0  0  0  0  0
    0.4840   53.1440   92.7350 O   0  0  0  0  0
    2.0160   51.2480   95.5000 O   0  0  0  0  0
    0.3750   53.0740   96.9260 O   0  0  0  0  0
    7.3020   52.4550   98.0040 C   0  0  0  0  0
    7.0760   50.9960   97.4840 C   0  0  0  0  0
    6.3180   51.0190   96.1540 C   0  0  0  0  0
    4.9660   51.7240   96.3640 C   0  0  0  0  0
    5.2210   53.2140   96.8690 C   0  0  0  0  0
    3.9260   54.0020   97.1230 C   0  0  0  0  0
    8.1320   53.1600   97.1290 O   0  0  0  0  0
    8.3540   50.3510   97.3380 O   0  0  0  0  0
    6.1230   49.6580   95.7030 O   0  0  0  0  0
    4.2330   51.7500   95.1130 O   0  0  0  0  0
    6.0000   53.1740   98.1390 O   0  0  0  0  0
    3.1700   53.4700   98.2160 O   0  0  0  0  0
   -3.1439   57.8751   91.0840 H   0  0  0  0  0
   -2.7501   60.1135   90.0046 H   0  0  0  0  0
    0.0066   60.0634   91.4423 H   0  0  0  0  0
   -2.3607   62.0170   91.7676 H   0  0  0  0  0
   -3.2322   60.1633   95.1659 H   0  0  0  0  0
   -2.0453   61.5105   95.0203 H   0  0  0  0  0
   -3.2843   58.5301   93.5278 H   0  0  0  0  0
   -0.9911   59.5351   88.6533 H   0  0  0  0  0
    0.1239   62.1808   90.5313 H   0  0  0  0  0
   -0.1894   62.7270   92.1489 H   0  0  0  0  0
   -4.2522   62.2589   95.0976 H   0  0  0  0  0
   -1.2129   52.1938   92.2536 H   0  0  0  0  0
   -2.1334   53.7363   90.6230 H   0  0  0  0  0
    0.4073   55.4255   90.9365 H   0  0  0  0  0
   -2.5498   55.9595   91.6758 H   0  0  0  0  0
    0.0270   55.6152   93.3866 H   0  0  0  0  0
   -1.4198   55.6899   95.3658 H   0  0  0  0  0
   -1.5177   57.2302   94.4570 H   0  0  0  0  0
   -2.8499   56.0233   94.3404 H   0  0  0  0  0
   -0.4283   57.6555   90.9486 H   0  0  0  0  0
   -0.5951   53.3130   89.0050 H   0  0  0  0  0
   -0.7436   56.6891   89.3711 H   0  0  0  0  0
    3.5676   49.8732   95.4681 H   0  0  0  0  0
    2.3870   49.5973   93.3095 H   0  0  0  0  0
    3.1594   52.5379   92.7406 H   0  0  0  0  0
    0.4267   51.1271   93.2387 H   0  0  0  0  0
    2.0692   53.2451   94.8334 H   0  0  0  0  0
   -0.4231   53.5444   95.1070 H   0  0  0  0  0
   -0.5526   51.8194   95.6097 H   0  0  0  0  0
    4.9567   50.7657   92.9892 H   0  0  0  0  0
    3.2062   51.0968   90.9490 H   0  0  0  0  0
    0.8196   52.3580   97.3645 H   0  0  0  0  0
    7.7735   52.4127   98.9969 H   0  0  0  0  0
    6.4884   50.4307   98.2223 H   0  0  0  0  0
    6.9035   51.5587   95.3951 H   0  0  0  0  0
    4.3707   51.1751   97.1085 H   0  0  0  0  0
    5.8155   53.7446   96.1107 H   0  0  0  0  0
    4.1801   55.0461   97.3581 H   0  0  0  0  0
    3.2980   53.9629   96.2208 H   0  0  0  0  0
    8.9604   52.7030   97.0428 H   0  0  0  0  0
    8.8743   50.8228   96.6983 H   0  0  0  0  0
    5.6486   49.6632   94.8799 H   0  0  0  0  0
    3.6942   53.5024   99.0076 H   0  0  0  0  0
  1  2  1  0  0  0
  1  7  1  0  0  0
 18  1  1  0  0  0
  2  3  1  0  0  0
  2  8  1  0  0  0
  3  4  1  0  0  0
  3  9  1  0  0  0
  5  4  1  0  0  0
  4 10  1  0  0  0
  5  6  1  0  0  0
  7  5  2  0  0  0
  6 11  1  0  0  0
 12 13  1  0  0  0
 13 14  1  0  0  0
 14 15  1  0  0  0
 16 15  1  0  0  0
 15 18  1  0  0  0
 16 17  1  0  0  0
 21 16  1  0  0  0
 13 19  1  0  0  0
 14 20  1  0  0  0
 12 21  1  0  0  0
 22 23  1  0  0  0
 22 31  1  0  0  0
 42 22  1  0  0  0
 23 24  1  0  0  0
 23 28  1  0  0  0
 24 25  1  0  0  0
 24 29  1  0  0  0
 26 25  1  0  0  0
 25 30  1  0  0  0
 26 27  1  0  0  0
 31 26  1  0  0  0
 27 32  1  0  0  0
 30 12  1  0  0  0
 34 33  1  0  0  0
 33 39  1  0  0  0
 35 34  1  0  0  0
 34 40  1  0  0  0
 36 35  1  0  0  0
 35 41  1  0  0  0
 36 37  1  0  0  0
 42 36  1  0  0  0
 37 38  1  0  0  0
 37 43  1  0  0  0
 38 44  1  0  0  0
 43 33  1  0  0  0
  1 45  1  0  0  0
  2 46  1  0  0  0
  3 47  1  0  0  0
  4 48  1  0  0  0
  6 49  1  0  0  0
  6 50  1  0  0  0
  7 51  1  0  0  0
  8 52  1  0  0  0
  9 53  1  0  0  0
 10 54  1  0  0  0
 11 55  1  0  0  0
 12 56  1  0  0  0
 13 57  1  0  0  0
 14 58  1  0  0  0
 15 59  1  0  0  0
 16 60  1  0  0  0
 17 61  1  0  0  0
 17 62  1  0  0  0
 17 63  1  0  0  0
 18 64  1  0  0  0
 19 65  1  0  0  0
 20 66  1  0  0  0
 22 67  1  0  0  0
 23 68  1  0  0  0
 24 69  1  0  0  0
 25 70  1  0  0  0
 26 71  1  0  0  0
 27 72  1  0  0  0
 27 73  1  0  0  0
 28 74  1  0  0  0
 29 75  1  0  0  0
 32 76  1  0  0  0
 33 77  1  0  0  0
 34 78  1  0  0  0
 35 79  1  0  0  0
 36 80  1  0  0  0
 37 81  1  0  0  0
 38 82  1  0  0  0
 38 83  1  0  0  0
 39 84  1  0  0  0
 40 85  1  0  0  0
 41 86  1  0  0  0
 44 87  1  0  0  0
M  END
$$$$
