1drk_ligand
  -I-interpret- 

 20 20  0  0  0  0  0  0  0  0999 V2000
   49.7320   33.6320   43.6180 C   0  0  0  0  0
   49.0360   33.0990   44.8940 C   0  0  0  0  0
   48.7010   34.2690   45.8230 C   0  0  0  0  0
   49.9470   35.1320   46.0490 C   0  0  0  0  0
   50.5770   35.5630   44.7470 C   0  0  0  0  0
   50.1480   32.5760   42.7790 O   0  0  0  0  0
   47.8400   32.3830   44.5820 O   0  0  0  0  0
   47.6530   35.0530   45.2730 O   0  0  0  0  0
   49.6110   36.2780   46.7640 O   0  0  0  0  0
   50.8780   34.4250   43.9670 O   0  0  0  0  0
   49.0163   34.2604   43.0677 H   0  0  0  0  0
   49.7276   32.4178   45.4113 H   0  0  0  0  0
   48.3690   33.8670   46.7916 H   0  0  0  0  0
   50.6793   34.5459   46.6236 H   0  0  0  0  0
   51.5027   36.1197   44.9548 H   0  0  0  0  0
   49.8764   36.2087   44.1973 H   0  0  0  0  0
   50.5435   32.9344   41.9931 H   0  0  0  0  0
   47.2359   32.9598   44.1295 H   0  0  0  0  0
   47.4568   35.7738   45.8598 H   0  0  0  0  0
   48.9688   36.7784   46.2745 H   0  0  0  0  0
  1 10  1  0  0  0
  1  6  1  0  0  0
  1  2  1  0  0  0
  2  7  1  0  0  0
  2  3  1  0  0  0
  3  8  1  0  0  0
  3  4  1  0  0  0
  4  9  1  0  0  0
  4  5  1  0  0  0
  5 10  1  0  0  0
  1 11  1  0  0  0
  2 12  1  0  0  0
  3 13  1  0  0  0
  4 14  1  0  0  0
  5 15  1  0  0  0
  5 16  1  0  0  0
  6 17  1  0  0  0
  7 18  1  0  0  0
  8 19  1  0  0  0
  9 20  1  0  0  0
M  END
$$$$
