### 
### Created by X-TOOL on Mon Oct 24 23:44:32 2005
### 

@<TRIPOS>MOLECULE
1drk_ligand
   20    20     1     0     0
SMALL
GAST_HUCK


@<TRIPOS>ATOM
      1 C1         49.7320   33.6320   43.6180 C.3       1 SUB1        0.185
      2 C2         49.0360   33.0990   44.8940 C.3       1 SUB1        0.134
      3 C3         48.7010   34.2690   45.8230 C.3       1 SUB1        0.114
      4 C4         49.9470   35.1320   46.0490 C.3       1 SUB1        0.107
      5 C5         50.5770   35.5630   44.7470 C.3       1 SUB1        0.079
      6 O1         50.1480   32.5760   42.7790 O.3       1 SUB1       -0.365
      7 O2         47.8400   32.3830   44.5820 O.3       1 SUB1       -0.384
      8 O3         47.6530   35.0530   45.2730 O.3       1 SUB1       -0.386
      9 O4         49.6110   36.2780   46.7640 O.3       1 SUB1       -0.387
     10 O5         50.8780   34.4250   43.9670 O.3       1 SUB1       -0.346
     11 H11        49.0163   34.2604   43.0677 H         1 SUB1        0.094
     12 H21        49.7276   32.4178   45.4113 H         1 SUB1        0.067
     13 H31        48.3690   33.8670   46.7916 H         1 SUB1        0.065
     14 H41        50.6793   34.5459   46.6236 H         1 SUB1        0.064
     15 H51        51.5027   36.1197   44.9548 H         1 SUB1        0.059
     16 H52        49.8764   36.2087   44.1973 H         1 SUB1        0.059
     17 H61        50.5435   32.9344   41.9931 H         1 SUB1        0.213
     18 H71        47.2359   32.9598   44.1295 H         1 SUB1        0.210
     19 H81        47.4568   35.7738   45.8598 H         1 SUB1        0.210
     20 H91        48.9688   36.7784   46.2745 H         1 SUB1        0.210
@<TRIPOS>BOND
     1    1   10 1  
     2    1    6 1  
     3    1    2 1  
     4    2    7 1  
     5    2    3 1  
     6    3    8 1  
     7    3    4 1  
     8    4    9 1  
     9    4    5 1  
    10    5   10 1  
    11    1   11 1  
    12    2   12 1  
    13    3   13 1  
    14    4   14 1  
    15    5   15 1  
    16    5   16 1  
    17    6   17 1  
    18    7   18 1  
    19    8   19 1  
    20    9   20 1  
@<TRIPOS>SUBSTRUCTURE
     1 SUB1        1 GROUP

