1gny_ligand
  -I-interpret- 

 88 92  0  0  0  0  0  0  0  0999 V2000
   16.9700    2.3940    2.5870 O   0  0  0  0  0
   18.0050    2.1510    3.5270 C   0  0  0  0  0
   18.8490    1.0200    3.0380 C   0  0  0  0  0
   20.0890    0.8540    3.8950 C   0  0  0  0  0
   20.7560    2.2010    4.1140 C   0  0  0  0  0
   19.7220    3.1550    4.6560 C   0  0  0  0  0
   18.0220   -0.0940    3.2260 O   0  0  0  0  0
   21.0390   -0.0020    3.3130 O   0  0  0  0  0
   21.7980    2.0400    5.0400 O   0  0  0  0  0
   18.7630    3.2750    3.6330 O   0  0  0  0  0
   22.8160    3.0040    4.7810 C   0  0  0  0  0
   23.4820    3.2930    6.1170 C   0  0  0  0  0
   24.7370    4.1410    5.9260 C   0  0  0  0  0
   25.6140    3.5650    4.8100 C   0  0  0  0  0
   24.7520    3.3230    3.5870 C   0  0  0  0  0
   22.5890    4.0100    6.9640 O   0  0  0  0  0
   25.4760    4.2090    7.1360 O   0  0  0  0  0
   26.6090    4.5170    4.5090 O   0  0  0  0  0
   23.6710    2.4620    3.8720 O   0  0  0  0  0
   27.9330    4.0500    4.2260 C   0  0  0  0  0
   28.4330    4.8040    3.0080 C   0  0  0  0  0
   29.8540    4.3500    2.7290 C   0  0  0  0  0
   30.7220    4.5530    3.9530 C   0  0  0  0  0
   30.0570    3.8650    5.1230 C   0  0  0  0  0
   27.6180    4.5090    1.8770 O   0  0  0  0  0
   30.4440    5.1440    1.7150 O   0  0  0  0  0
   31.9990    3.9660    3.7120 O   0  0  0  0  0
   28.7050    4.3110    5.3000 O   0  0  0  0  0
   33.0500    4.6380    4.3550 C   0  0  0  0  0
   34.1470    3.6250    4.6070 C   0  0  0  0  0
   35.3930    4.2920    5.1400 C   0  0  0  0  0
   35.7420    5.4870    4.2810 C   0  0  0  0  0
   34.5070    6.3630    4.1560 C   0  0  0  0  0
   33.7140    2.6290    5.5220 O   0  0  0  0  0
   36.4860    3.3940    5.1910 O   0  0  0  0  0
   36.7620    6.1570    4.9770 O   0  0  0  0  0
   33.4450    5.6360    3.5590 O   0  0  0  0  0
   37.7690    6.7680    4.1390 C   0  0  0  0  0
   38.5850    7.7950    4.9230 C   0  0  0  0  0
   39.8990    8.2060    4.2410 C   0  0  0  0  0
   40.5150    7.1280    3.3640 C   0  0  0  0  0
   39.4630    6.2850    2.6660 C   0  0  0  0  0
   37.9020    9.0170    5.1560 O   0  0  0  0  0
   40.8400    8.5910    5.2280 O   0  0  0  0  0
   41.3200    7.7730    2.4030 O   0  0  0  0  0
   38.5710    5.7930    3.6400 O   0  0  0  0  0
   16.4314    1.6160    2.5025 H   0  0  0  0  0
   17.5729    1.8971    4.5062 H   0  0  0  0  0
   19.1282    1.1526    1.9823 H   0  0  0  0  0
   19.7844    0.4369    4.8662 H   0  0  0  0  0
   21.1576    2.5846    3.1645 H   0  0  0  0  0
   20.1760    4.1324    4.8764 H   0  0  0  0  0
   19.2633    2.7493    5.5698 H   0  0  0  0  0
   17.2263    0.0145    2.7185 H   0  0  0  0  0
   21.7933   -0.0725    3.8861 H   0  0  0  0  0
   22.3837    3.9296    4.3731 H   0  0  0  0  0
   23.7550    2.3400    6.5938 H   0  0  0  0  0
   24.4313    5.1589    5.6423 H   0  0  0  0  0
   26.0773    2.6220    5.1356 H   0  0  0  0  0
   25.3708    2.8692    2.7989 H   0  0  0  0  0
   24.3565    4.2866    3.2334 H   0  0  0  0  0
   21.8074    3.4903    7.1106 H   0  0  0  0  0
   26.2529    4.7391    7.0019 H   0  0  0  0  0
   27.9264    2.9689    4.0230 H   0  0  0  0  0
   28.4141    5.8861    3.2046 H   0  0  0  0  0
   29.8482    3.2908    2.4324 H   0  0  0  0  0
   30.8370    5.6265    4.1634 H   0  0  0  0  0
   30.6277    4.0845    6.0374 H   0  0  0  0  0
   30.0541    2.7797    4.9441 H   0  0  0  0  0
   26.7220    4.7683    2.0574 H   0  0  0  0  0
   31.3313    4.8442    1.5557 H   0  0  0  0  0
   32.7084    5.0524    5.3150 H   0  0  0  0  0
   34.3930    3.1392    3.6513 H   0  0  0  0  0
   35.1870    4.6424    6.1622 H   0  0  0  0  0
   36.0887    5.1755    3.2846 H   0  0  0  0  0
   34.7440    7.2371    3.5318 H   0  0  0  0  0
   34.1984    6.6998    5.1566 H   0  0  0  0  0
   32.9576    2.1792    5.1642 H   0  0  0  0  0
   37.2499    3.8457    5.5298 H   0  0  0  0  0
   37.2719    7.2828    3.3036 H   0  0  0  0  0
   38.8235    7.3362    5.8939 H   0  0  0  0  0
   39.6842    9.0746    3.6011 H   0  0  0  0  0
   41.1383    6.4694    3.9867 H   0  0  0  0  0
   39.9454    5.4446    2.1454 H   0  0  0  0  0
   38.9154    6.9016    1.9381 H   0  0  0  0  0
   38.4652    9.6049    5.6455 H   0  0  0  0  0
   41.6527    8.8453    4.8070 H   0  0  0  0  0
   41.7198    7.1221    1.8382 H   0  0  0  0  0
  2  1  1  0  0  0
 10  2  1  0  0  0
  3  2  1  0  0  0
  3  7  1  0  0  0
  4  3  1  0  0  0
  4  8  1  0  0  0
  5  4  1  0  0  0
  9  5  1  0  0  0
  5  6  1  0  0  0
  6 10  1  0  0  0
 19 11  1  0  0  0
 12 11  1  0  0  0
 12 16  1  0  0  0
 13 12  1  0  0  0
 13 17  1  0  0  0
 14 13  1  0  0  0
 18 14  1  0  0  0
 14 15  1  0  0  0
 15 19  1  0  0  0
 28 20  1  0  0  0
 21 20  1  0  0  0
 21 25  1  0  0  0
 22 21  1  0  0  0
 22 26  1  0  0  0
 23 22  1  0  0  0
 27 23  1  0  0  0
 23 24  1  0  0  0
 24 28  1  0  0  0
 37 29  1  0  0  0
 30 29  1  0  0  0
 30 34  1  0  0  0
 31 30  1  0  0  0
 31 35  1  0  0  0
 32 31  1  0  0  0
 36 32  1  0  0  0
 32 33  1  0  0  0
 33 37  1  0  0  0
 38 46  1  0  0  0
 38 39  1  0  0  0
 39 43  1  0  0  0
 39 40  1  0  0  0
 40 44  1  0  0  0
 40 41  1  0  0  0
 41 45  1  0  0  0
 42 41  1  0  0  0
 46 42  1  0  0  0
 11  9  1  0  0  0
 20 18  1  0  0  0
 29 27  1  0  0  0
 36 38  1  0  0  0
  1 47  1  0  0  0
  2 48  1  0  0  0
  3 49  1  0  0  0
  4 50  1  0  0  0
  5 51  1  0  0  0
  6 52  1  0  0  0
  6 53  1  0  0  0
  7 54  1  0  0  0
  8 55  1  0  0  0
 11 56  1  0  0  0
 12 57  1  0  0  0
 13 58  1  0  0  0
 14 59  1  0  0  0
 15 60  1  0  0  0
 15 61  1  0  0  0
 16 62  1  0  0  0
 17 63  1  0  0  0
 20 64  1  0  0  0
 21 65  1  0  0  0
 22 66  1  0  0  0
 23 67  1  0  0  0
 24 68  1  0  0  0
 24 69  1  0  0  0
 25 70  1  0  0  0
 26 71  1  0  0  0
 29 72  1  0  0  0
 30 73  1  0  0  0
 31 74  1  0  0  0
 32 75  1  0  0  0
 33 76  1  0  0  0
 33 77  1  0  0  0
 34 78  1  0  0  0
 35 79  1  0  0  0
 38 80  1  0  0  0
 39 81  1  0  0  0
 40 82  1  0  0  0
 41 83  1  0  0  0
 42 84  1  0  0  0
 42 85  1  0  0  0
 43 86  1  0  0  0
 44 87  1  0  0  0
 45 88  1  0  0  0
M  END
$$$$
