### 
### Created by X-TOOL on Mon Oct 24 22:19:45 2005
### 

@<TRIPOS>MOLECULE
1gny_ligand
   88    92     1     0     0
SMALL
GAST_HUCK


@<TRIPOS>ATOM
      1 O4A        16.9700    2.3940    2.5870 O.3       1 SUB1       -0.365
      2 C1B        18.0050    2.1510    3.5270 C.3       1 SUB1        0.185
      3 C2B        18.8490    1.0200    3.0380 C.3       1 SUB1        0.134
      4 C3B        20.0890    0.8540    3.8950 C.3       1 SUB1        0.114
      5 C4B        20.7560    2.2010    4.1140 C.3       1 SUB1        0.113
      6 C5B        19.7220    3.1550    4.6560 C.3       1 SUB1        0.080
      7 O2B        18.0220   -0.0940    3.2260 O.3       1 SUB1       -0.384
      8 O3B        21.0390   -0.0020    3.3130 O.3       1 SUB1       -0.386
      9 O4B        21.7980    2.0400    5.0400 O.3       1 SUB1       -0.340
     10 O5B        18.7630    3.2750    3.6330 O.3       1 SUB1       -0.346
     11 C1         22.8160    3.0040    4.7810 C.3       1 SUB1        0.188
     12 C2         23.4820    3.2930    6.1170 C.3       1 SUB1        0.134
     13 C3         24.7370    4.1410    5.9260 C.3       1 SUB1        0.114
     14 C4         25.6140    3.5650    4.8100 C.3       1 SUB1        0.113
     15 C5         24.7520    3.3230    3.5870 C.3       1 SUB1        0.080
     16 O2         22.5890    4.0100    6.9640 O.3       1 SUB1       -0.384
     17 O3         25.4760    4.2090    7.1360 O.3       1 SUB1       -0.386
     18 O4         26.6090    4.5170    4.5090 O.3       1 SUB1       -0.340
     19 O5         23.6710    2.4620    3.8720 O.3       1 SUB1       -0.346
     20 C1         27.9330    4.0500    4.2260 C.3       1 SUB1        0.188
     21 C2         28.4330    4.8040    3.0080 C.3       1 SUB1        0.134
     22 C3         29.8540    4.3500    2.7290 C.3       1 SUB1        0.114
     23 C4         30.7220    4.5530    3.9530 C.3       1 SUB1        0.113
     24 C5         30.0570    3.8650    5.1230 C.3       1 SUB1        0.080
     25 O2         27.6180    4.5090    1.8770 O.3       1 SUB1       -0.384
     26 O3         30.4440    5.1440    1.7150 O.3       1 SUB1       -0.386
     27 O4         31.9990    3.9660    3.7120 O.3       1 SUB1       -0.340
     28 O5         28.7050    4.3110    5.3000 O.3       1 SUB1       -0.346
     29 C1         33.0500    4.6380    4.3550 C.3       1 SUB1        0.188
     30 C2         34.1470    3.6250    4.6070 C.3       1 SUB1        0.134
     31 C3         35.3930    4.2920    5.1400 C.3       1 SUB1        0.114
     32 C4         35.7420    5.4870    4.2810 C.3       1 SUB1        0.113
     33 C5         34.5070    6.3630    4.1560 C.3       1 SUB1        0.080
     34 O2         33.7140    2.6290    5.5220 O.3       1 SUB1       -0.384
     35 O3         36.4860    3.3940    5.1910 O.3       1 SUB1       -0.386
     36 O4         36.7620    6.1570    4.9770 O.3       1 SUB1       -0.340
     37 O5         33.4450    5.6360    3.5590 O.3       1 SUB1       -0.346
     38 C1         37.7690    6.7680    4.1390 C.3       1 SUB1        0.188
     39 C2         38.5850    7.7950    4.9230 C.3       1 SUB1        0.134
     40 C3         39.8990    8.2060    4.2410 C.3       1 SUB1        0.114
     41 C4         40.5150    7.1280    3.3640 C.3       1 SUB1        0.107
     42 C5         39.4630    6.2850    2.6660 C.3       1 SUB1        0.079
     43 O2         37.9020    9.0170    5.1560 O.3       1 SUB1       -0.384
     44 O3         40.8400    8.5910    5.2280 O.3       1 SUB1       -0.386
     45 O4         41.3200    7.7730    2.4030 O.3       1 SUB1       -0.387
     46 O5         38.5710    5.7930    3.6400 O.3       1 SUB1       -0.346
     47 H11        16.4314    1.6160    2.5025 H         1 SUB1        0.213
     48 H21        17.5729    1.8971    4.5062 H         1 SUB1        0.094
     49 H31        19.1282    1.1526    1.9823 H         1 SUB1        0.067
     50 H41        19.7844    0.4369    4.8662 H         1 SUB1        0.065
     51 H51        21.1576    2.5846    3.1645 H         1 SUB1        0.065
     52 H61        20.1760    4.1324    4.8764 H         1 SUB1        0.059
     53 H62        19.2633    2.7493    5.5698 H         1 SUB1        0.059
     54 H71        17.2263    0.0145    2.7185 H         1 SUB1        0.210
     55 H81        21.7933   -0.0725    3.8861 H         1 SUB1        0.210
     56 H111       22.3837    3.9296    4.3731 H         1 SUB1        0.094
     57 H121       23.7550    2.3400    6.5938 H         1 SUB1        0.067
     58 H131       24.4313    5.1589    5.6423 H         1 SUB1        0.065
     59 H141       26.0773    2.6220    5.1356 H         1 SUB1        0.065
     60 H151       25.3708    2.8692    2.7989 H         1 SUB1        0.059
     61 H152       24.3565    4.2866    3.2334 H         1 SUB1        0.059
     62 H161       21.8074    3.4903    7.1106 H         1 SUB1        0.210
     63 H171       26.2529    4.7391    7.0019 H         1 SUB1        0.210
     64 H201       27.9264    2.9689    4.0230 H         1 SUB1        0.094
     65 H211       28.4141    5.8861    3.2046 H         1 SUB1        0.067
     66 H221       29.8482    3.2908    2.4324 H         1 SUB1        0.065
     67 H231       30.8370    5.6265    4.1634 H         1 SUB1        0.065
     68 H241       30.6277    4.0845    6.0374 H         1 SUB1        0.059
     69 H242       30.0541    2.7797    4.9441 H         1 SUB1        0.059
     70 H251       26.7220    4.7683    2.0574 H         1 SUB1        0.210
     71 H261       31.3313    4.8442    1.5557 H         1 SUB1        0.210
     72 H291       32.7084    5.0524    5.3150 H         1 SUB1        0.094
     73 H301       34.3930    3.1392    3.6513 H         1 SUB1        0.067
     74 H311       35.1870    4.6424    6.1622 H         1 SUB1        0.065
     75 H321       36.0887    5.1755    3.2846 H         1 SUB1        0.065
     76 H331       34.7440    7.2371    3.5318 H         1 SUB1        0.059
     77 H332       34.1984    6.6998    5.1566 H         1 SUB1        0.059
     78 H341       32.9576    2.1792    5.1642 H         1 SUB1        0.210
     79 H351       37.2499    3.8457    5.5298 H         1 SUB1        0.210
     80 H381       37.2719    7.2828    3.3036 H         1 SUB1        0.094
     81 H391       38.8235    7.3362    5.8939 H         1 SUB1        0.067
     82 H401       39.6842    9.0746    3.6011 H         1 SUB1        0.065
     83 H411       41.1383    6.4694    3.9867 H         1 SUB1        0.064
     84 H421       39.9454    5.4446    2.1454 H         1 SUB1        0.059
     85 H422       38.9154    6.9016    1.9381 H         1 SUB1        0.059
     86 H431       38.4652    9.6049    5.6455 H         1 SUB1        0.210
     87 H441       41.6527    8.8453    4.8070 H         1 SUB1        0.210
     88 H451       41.7198    7.1221    1.8382 H         1 SUB1        0.210
@<TRIPOS>BOND
     1    2    1 1  
     2   10    2 1  
     3    3    2 1  
     4    3    7 1  
     5    4    3 1  
     6    4    8 1  
     7    5    4 1  
     8    9    5 1  
     9    5    6 1  
    10    6   10 1  
    11   19   11 1  
    12   12   11 1  
    13   12   16 1  
    14   13   12 1  
    15   13   17 1  
    16   14   13 1  
    17   18   14 1  
    18   14   15 1  
    19   15   19 1  
    20   28   20 1  
    21   21   20 1  
    22   21   25 1  
    23   22   21 1  
    24   22   26 1  
    25   23   22 1  
    26   27   23 1  
    27   23   24 1  
    28   24   28 1  
    29   37   29 1  
    30   30   29 1  
    31   30   34 1  
    32   31   30 1  
    33   31   35 1  
    34   32   31 1  
    35   36   32 1  
    36   32   33 1  
    37   33   37 1  
    38   38   46 1  
    39   38   39 1  
    40   39   43 1  
    41   39   40 1  
    42   40   44 1  
    43   40   41 1  
    44   41   45 1  
    45   42   41 1  
    46   46   42 1  
    47   11    9 1  
    48   20   18 1  
    49   29   27 1  
    50   36   38 1  
    51    1   47 1  
    52    2   48 1  
    53    3   49 1  
    54    4   50 1  
    55    5   51 1  
    56    6   52 1  
    57    6   53 1  
    58    7   54 1  
    59    8   55 1  
    60   11   56 1  
    61   12   57 1  
    62   13   58 1  
    63   14   59 1  
    64   15   60 1  
    65   15   61 1  
    66   16   62 1  
    67   17   63 1  
    68   20   64 1  
    69   21   65 1  
    70   22   66 1  
    71   23   67 1  
    72   24   68 1  
    73   24   69 1  
    74   25   70 1  
    75   26   71 1  
    76   29   72 1  
    77   30   73 1  
    78   31   74 1  
    79   32   75 1  
    80   33   76 1  
    81   33   77 1  
    82   34   78 1  
    83   35   79 1  
    84   38   80 1  
    85   39   81 1  
    86   40   82 1  
    87   41   83 1  
    88   42   84 1  
    89   42   85 1  
    90   43   86 1  
    91   44   87 1  
    92   45   88 1  
@<TRIPOS>SUBSTRUCTURE
     1 SUB1        1 GROUP

