### 
### Created by X-TOOL on Sun Jun  3 11:28:35 2007
### 

@<TRIPOS>MOLECULE
2h4g_ligand
   28    29     1     0     0
SMALL
GAST_HUCK


@<TRIPOS>ATOM
      1 C1         47.2730   11.0890    0.5060 C.ar      1 SUB1       -0.024
      2 C2         47.5210    9.7950   -0.0230 C.ar      1 SUB1        0.001
      3 C3         46.4320    9.0000   -0.4500 C.ar      1 SUB1        0.126
      4 C4         45.0960    9.4830   -0.3500 C.ar      1 SUB1        0.001
      5 C5         44.8470   10.7810    0.1840 C.ar      1 SUB1       -0.024
      6 C6         45.9290   11.6070    0.6230 C.ar      1 SUB1        0.047
      7 C7         45.6610   12.9690    1.1830 C.2       1 SUB1        0.121
      8 C8         46.1050   13.5880    2.3580 C.2       1 SUB1        0.121
      9 C9         45.6020   14.9310    2.5310 C.2       1 SUB1        0.193
     10 C10        44.7930   15.3070    1.4600 C.2       1 SUB1        0.179
     11 S1         44.6340   14.0460    0.3100 S.3       1 SUB1        0.064
     12 C11        44.1040   16.7080    1.2510 C.2       1 SUB1        0.124
     13 O1         43.9300   17.4410    2.2800 O.2       1 SUB1       -0.546
     14 O2         43.7790   16.9910    0.0600 O.2       1 SUB1       -0.546
     15 O3         45.8820   15.7650    3.6040 O.3       1 SUB1       -0.274
     16 C12        47.1130   16.5260    3.4360 C.3       1 SUB1        0.188
     17 C13        47.4820   17.1650    4.7870 C.2       1 SUB1        0.377
     18 O4         46.5480   17.2540    5.6340 O.2       1 SUB1       -0.259
     19 O5         48.6830   17.5320    4.8860 O.2       1 SUB1       -0.259
     20 BR1        47.2540   12.7920    3.6390 Br        1 SUB1       -0.029
     21 O6         46.6420    7.7490   -0.9680 O.3       1 SUB1       -0.307
     22 H          48.1127   11.7037    0.8302 H         1 SUB1        0.079
     23 H          48.5408    9.4179   -0.0993 H         1 SUB1        0.066
     24 H          44.2647    8.8608   -0.6815 H         1 SUB1        0.066
     25 H          43.8231   11.1472    0.2584 H         1 SUB1        0.079
     26 H          46.9703   17.3024    2.6843 H         1 SUB1        0.085
     27 H          47.9154   15.8665    3.1054 H         1 SUB1        0.085
     28 H          47.5832    7.5601   -0.9737 H         1 SUB1        0.265
@<TRIPOS>BOND
     1    1    2 ar 
     2    1    6 ar 
     3    2    3 ar 
     4    3    4 ar 
     5    3   21 1  
     6    4    5 ar 
     7    5    6 ar 
     8    6    7 1  
     9    7    8 2  
    10    7   11 1  
    11    8    9 1  
    12    8   20 1  
    13    9   10 2  
    14    9   15 1  
    15   10   11 1  
    16   10   12 1  
    17   12   13 2  
    18   12   14 2  
    19   15   16 1  
    20   16   17 1  
    21   17   18 2  
    22   17   19 2  
    23    1   22 1  
    24    2   23 1  
    25    4   24 1  
    26    5   25 1  
    27   16   26 1  
    28   16   27 1  
    29   21   28 1  
@<TRIPOS>SUBSTRUCTURE
     1 SUB1        1 GROUP

