### 
### Created by X-TOOL on Mon Oct 24 22:55:42 2005
### 

@<TRIPOS>MOLECULE
3gst_ligand
   61    63     1     0     0
SMALL
GAST_HUCK


@<TRIPOS>ATOM
      1 N1         14.5620   14.7450   25.0920 N.4       1 SUB1        0.238
      2 CA1        14.1510   15.3770   26.3990 C.3       1 SUB1        0.017
      3 C1         13.1440   16.5080   26.1890 C.2       1 SUB1        0.076
      4 O1         12.4380   16.8980   27.1110 O.co2     1 SUB1       -0.561
      5 OT1        13.1400   17.0330   24.9680 O.co2     1 SUB1       -0.561
      6 CB1        15.3740   16.0750   27.1080 C.3       1 SUB1        0.018
      7 CG1        15.7930   15.1850   28.2290 C.3       1 SUB1        0.045
      8 CD1        16.7670   15.6900   29.2190 C.2       1 SUB1        0.179
      9 OE1        17.9750   15.5180   28.9210 O.2       1 SUB1       -0.397
     10 N2         16.2950   16.2790   30.3300 N.am      1 SUB1       -0.265
     11 CA2        17.2090   16.9690   31.2690 C.3       1 SUB1        0.140
     12 C2         16.9640   16.3990   32.6940 C.2       1 SUB1        0.205
     13 O2         17.5550   16.9260   33.6090 O.2       1 SUB1       -0.394
     14 CB2        17.0910   18.5080   31.2710 C.3       1 SUB1        0.037
     15 SG2        17.3250   19.1560   29.6490 S.3       1 SUB1       -0.134
     16 N3         16.2670   15.3090   32.7800 N.am      1 SUB1       -0.271
     17 CA3        15.8910   14.8170   34.1340 C.3       1 SUB1        0.070
     18 C3         16.6510   13.5810   34.4670 C.2       1 SUB1        0.050
     19 O3         17.5230   13.0370   33.7730 O.co2     1 SUB1       -0.564
     20 OT3        16.4220   12.9510   35.6130 O.co2     1 SUB1       -0.564
     21 CA4        19.0120   19.0640   29.8780 C.3       1 SUB1        0.076
     22 CB4        19.4670   20.4270   30.3270 C.ar      1 SUB1       -0.018
     23 CG4        19.6360   20.6660   31.7170 C.ar      1 SUB1       -0.059
     24 CD4        20.0880   21.8980   32.1800 C.ar      1 SUB1       -0.069
     25 CE4        20.3590   22.9100   31.2340 C.ar      1 SUB1       -0.069
     26 CZ4        20.2180   22.6990   29.8620 C.ar      1 SUB1       -0.062
     27 CH4        19.7920   21.4440   29.3930 C.ar      1 SUB1       -0.017
     28 CH5        19.5880   21.1600   27.9290 C.ar      1 SUB1       -0.016
     29 CZ5        19.5340   22.2300   26.9870 C.ar      1 SUB1       -0.062
     30 CE5        19.3350   21.9120   25.6510 C.ar      1 SUB1       -0.069
     31 CD5        19.1970   20.5950   25.2170 C.ar      1 SUB1       -0.069
     32 CG5        19.3050   19.5510   26.1400 C.ar      1 SUB1       -0.058
     33 CB5        19.5000   19.8500   27.4870 C.ar      1 SUB1       -0.004
     34 CA5        19.5280   18.6830   28.4710 C.3       1 SUB1        0.111
     35 O5         20.9200   18.3460   28.6100 O.3       1 SUB1       -0.376
     36 H11        15.2242   14.0061   25.2697 H         1 SUB1        0.202
     37 H12        14.9870   15.4420   24.5007 H         1 SUB1        0.202
     38 H13        13.7495   14.3646   24.6325 H         1 SUB1        0.202
     39 H21        13.7226   14.6011   27.0505 H         1 SUB1        0.107
     40 H61        15.0736   17.0585   27.4984 H         1 SUB1        0.038
     41 H62        16.2025   16.2008   26.3955 H         1 SUB1        0.038
     42 H71        16.2307   14.2824   27.7777 H         1 SUB1        0.051
     43 H72        14.8821   14.9133   28.7826 H         1 SUB1        0.051
     44 H101       15.3147   16.2513   30.5255 H         1 SUB1        0.188
     45 H111       18.2388   16.7240   30.9699 H         1 SUB1        0.081
     46 H141       17.8562   18.9275   31.9407 H         1 SUB1        0.043
     47 H142       16.0917   18.7926   31.6322 H         1 SUB1        0.043
     48 H161       15.9892   14.8117   31.9581 H         1 SUB1        0.190
     49 H171       14.8136   14.5960   34.1530 H         1 SUB1        0.074
     50 H172       16.1191   15.5942   34.8783 H         1 SUB1        0.074
     51 H211       19.2934   18.3039   30.6217 H         1 SUB1        0.063
     52 H231       19.4099   19.8782   32.4265 H         1 SUB1        0.055
     53 H241       20.2284   22.0760   33.2400 H         1 SUB1        0.059
     54 H251       20.6871   23.8819   31.5846 H         1 SUB1        0.056
     55 H261       20.4356   23.4977   29.1621 H         1 SUB1        0.060
     56 H291       19.6451   23.2603   27.3052 H         1 SUB1        0.060
     57 H301       19.2854   22.7130   24.9223 H         1 SUB1        0.056
     58 H311       19.0073   20.3818   24.1712 H         1 SUB1        0.059
     59 H321       19.2378   18.5201   25.8116 H         1 SUB1        0.056
     60 H341       18.9459   17.8375   28.0756 H         1 SUB1        0.080
     61 H351       21.2727   18.1054   27.7613 H         1 SUB1        0.213
@<TRIPOS>BOND
     1    1    2 1  
     2    2    6 1  
     3    2    3 1  
     4    3    5 2  
     5    3    4 2  
     6    6    7 1  
     7    7    8 1  
     8    8   10 am 
     9    8    9 2  
    10   10   11 1  
    11   11   14 1  
    12   11   12 1  
    13   12   16 am 
    14   12   13 2  
    15   16   17 1  
    16   17   18 1  
    17   18   20 2  
    18   18   19 2  
    19   14   15 1  
    20   15   21 1  
    21   21   22 1  
    22   21   34 1  
    23   34   35 1  
    24   34   33 1  
    25   33   32 ar 
    26   33   28 ar 
    27   28   29 ar 
    28   28   27 1  
    29   27   26 ar 
    30   27   22 ar 
    31   22   23 ar 
    32   23   24 ar 
    33   24   25 ar 
    34   25   26 ar 
    35   29   30 ar 
    36   30   31 ar 
    37   31   32 ar 
    38    1   36 1  
    39    1   37 1  
    40    1   38 1  
    41    2   39 1  
    42    6   40 1  
    43    6   41 1  
    44    7   42 1  
    45    7   43 1  
    46   10   44 1  
    47   11   45 1  
    48   14   46 1  
    49   14   47 1  
    50   16   48 1  
    51   17   49 1  
    52   17   50 1  
    53   21   51 1  
    54   23   52 1  
    55   24   53 1  
    56   25   54 1  
    57   26   55 1  
    58   29   56 1  
    59   30   57 1  
    60   31   58 1  
    61   32   59 1  
    62   34   60 1  
    63   35   61 1  
@<TRIPOS>SUBSTRUCTURE
     1 SUB1        1 GROUP

