1pgp_ligand
  -I-interpret- 

 27 26  0  0  0  0  0  0  0  0999 V2000
   19.8107   27.8055   38.6434 H   0  0  0  0  0
   21.8044   26.8932   39.6927 H   0  0  0  0  0
   22.5695   28.1057   41.5339 H   0  0  0  0  0
   24.4174   27.1652   39.9930 H   0  0  0  0  0
   24.5197   29.1297   38.3083 H   0  0  0  0  0
   26.0443   28.3579   38.8618 H   0  0  0  0  0
   18.7837   28.6670   40.5409 H   0  0  0  0  0
   22.4628   29.0948   38.0183 H   0  0  0  0  0
   23.1023   30.4210   39.9733 H   0  0  0  0  0
   25.2687   29.3108   41.6594 H   0  0  0  0  0
   20.2160   29.9130   38.8060 C   0  0  0  0  0
   20.3270   28.4720   39.3500 C   0  0  0  0  0
   21.8460   27.9720   39.4820 C   0  0  0  0  0
   22.8470   28.5740   40.5780 C   0  0  0  0  0
   24.4050   28.2270   40.2800 C   0  0  0  0  0
   25.2040   29.0020   39.1600 C   0  0  0  0  0
   21.2790   30.6310   38.5290 O   0  5  0  0  0
   19.1050   30.4010   38.5710 O   0  0  0  0  0
   19.6830   28.3710   40.6190 O   0  0  0  0  0
   22.3540   28.1650   38.1800 O   0  0  0  0  0
   22.7960   29.9890   40.7620 O   0  0  0  0  0
   25.1860   28.3860   41.4580 O   0  0  0  0  0
   25.7830   30.3680   39.4700 O   0  0  0  0  0
   27.3900   30.6110   39.6170 P   0  0  0  0  0
   27.7430   30.0220   40.9760 O   0  5  0  0  0
   27.7890   32.0490   39.7730 O   0  0  0  0  0
   28.2410   29.8860   38.4890 O   0  5  0  0  0
 12  1  1  0  0  0
 13  2  1  0  0  0
 14  3  1  0  0  0
 15  4  1  0  0  0
 16  5  1  0  0  0
 16  6  1  0  0  0
 19  7  1  0  0  0
 20  8  1  0  0  0
 21  9  1  0  0  0
 22 10  1  0  0  0
 12 11  1  0  0  0
 11 17  1  0  0  0
 11 18  2  0  0  0
 13 12  1  0  0  0
 12 19  1  0  0  0
 14 13  1  0  0  0
 13 20  1  0  0  0
 15 14  1  0  0  0
 14 21  1  0  0  0
 15 16  1  0  0  0
 15 22  1  0  0  0
 16 23  1  0  0  0
 23 24  1  0  0  0
 24 25  1  0  0  0
 24 26  2  0  0  0
 24 27  1  0  0  0
M  END
$$$$
