### 
### Created by X-TOOL on Sun Jun  3 12:44:14 2007
### 

@<TRIPOS>MOLECULE
2hs1_ligand
   75    78     1     0     0
SMALL
GAST_HUCK


@<TRIPOS>ATOM
      1 N1         -1.2940    8.2620   29.8300 N.pl3     1 SUB1       -0.337
      2 C2         -0.8280    8.5490   31.1020 C.ar      1 SUB1        0.035
      3 C3          0.4250    8.0880   31.4730 C.ar      1 SUB1       -0.043
      4 C4          0.9200    8.3460   32.7100 C.ar      1 SUB1       -0.047
      5 C5          0.1980    9.0660   33.6280 C.ar      1 SUB1        0.095
      6 C6         -1.0480    9.5490   33.3140 C.ar      1 SUB1       -0.047
      7 C7         -1.5610    9.2870   32.0450 C.ar      1 SUB1       -0.043
      8 S8          0.7890    9.2590   35.2520 S.o2      1 SUB1        0.065
      9 O9          2.2310    9.0680   35.1950 O.2       1 SUB1       -0.152
     10 O10         0.2870   10.4610   35.7810 O.2       1 SUB1       -0.152
     11 N11         0.1740    8.0660   36.2430 N.am      1 SUB1       -0.233
     12 C12        -1.2910    8.0190   36.3910 C.3       1 SUB1        0.032
     13 C13        -1.7500    7.6730   37.7900 C.3       1 SUB1       -0.030
     14 C14        -1.2450    8.6560   38.8220 C.3       1 SUB1       -0.061
     15 C15        -3.2530    7.5460   37.8520 C.3       1 SUB1       -0.061
     16 C16         0.8050    6.7340   36.2310 C.3       1 SUB1        0.058
     17 C17         1.4980    6.4280   37.5590 C.3       1 SUB1        0.097
     18 O18         1.8620    5.0460   37.5910 O.3       1 SUB1       -0.388
     19 C19         2.7360    7.2970   37.8680 C.3       1 SUB1        0.081
     20 N20         3.1030    7.0790   39.2530 N.am      1 SUB1       -0.255
     21 C21         2.9370    8.0290   40.2010 C.2       1 SUB1        0.320
     22 O22         2.5280    9.2000   40.0720 O.2       1 SUB1       -0.377
     23 O23         3.3030    7.5090   41.3910 O.3       1 SUB1       -0.258
     24 C24         3.4220    8.4640   42.5090 C.3       1 SUB1        0.119
     25 C25         2.9760    7.6430   43.7780 C.3       1 SUB1        0.082
     26 O26         4.0980    6.7860   44.0650 O.3       1 SUB1       -0.348
     27 C27         5.2850    7.5520   43.7520 C.3       1 SUB1        0.165
     28 O28         6.1250    6.7300   43.0080 O.3       1 SUB1       -0.351
     29 C29         6.2670    7.2060   41.6490 C.3       1 SUB1        0.051
     30 C30         5.8740    8.6700   41.7000 C.3       1 SUB1       -0.019
     31 C31         4.8810    8.7320   42.8400 C.3       1 SUB1        0.045
     32 C32         3.9560    7.0470   36.9580 C.3       1 SUB1        0.006
     33 C33         6.2390    7.3670   37.9690 C.ar      1 SUB1       -0.060
     34 C34         7.3210    8.1750   38.3500 C.ar      1 SUB1       -0.069
     35 C35         7.2620    9.5160   38.1280 C.ar      1 SUB1       -0.069
     36 C36         6.1490   10.0800   37.5210 C.ar      1 SUB1       -0.069
     37 C37         5.0910    9.3160   37.1470 C.ar      1 SUB1       -0.060
     38 C38         5.1240    7.9490   37.3620 C.ar      1 SUB1       -0.041
     39 H          -0.7176    7.7205   29.1858 H         1 SUB1        0.172
     40 H          -2.2136    8.5921   29.5372 H         1 SUB1        0.172
     41 H           1.0194    7.5120   30.7637 H         1 SUB1        0.052
     42 H           1.9088    7.9746   32.9790 H         1 SUB1        0.060
     43 H          -1.6226   10.1239   34.0402 H         1 SUB1        0.060
     44 H          -2.5495    9.6619   31.7797 H         1 SUB1        0.052
     45 H          -1.6611    7.2399   35.7246 H         1 SUB1        0.048
     46 H          -1.6741    9.0127   36.1587 H         1 SUB1        0.048
     47 H          -1.3137    6.7048   38.0354 H         1 SUB1        0.031
     48 H          -0.1550    8.6594   38.8159 H         1 SUB1        0.023
     49 H          -1.6141    9.6534   38.5830 H         1 SUB1        0.023
     50 H          -1.6032    8.3614   39.8084 H         1 SUB1        0.023
     51 H          -3.7087    8.4917   37.5584 H         1 SUB1        0.023
     52 H          -3.5781    6.7581   37.1725 H         1 SUB1        0.023
     53 H          -3.5536    7.2968   38.8697 H         1 SUB1        0.023
     54 H           1.5538    6.7146   35.4391 H         1 SUB1        0.050
     55 H           0.0288    5.9865   36.0672 H         1 SUB1        0.050
     56 H           0.7731    6.6728   38.3353 H         1 SUB1        0.063
     57 H           2.2976    4.8502   38.4238 H         1 SUB1        0.210
     58 H           2.4500    8.3305   37.6726 H         1 SUB1        0.060
     59 H           3.4999    6.1786   39.5218 H         1 SUB1        0.187
     60 H           2.8747    9.3746   42.2656 H         1 SUB1        0.068
     61 H           2.0634    7.0750   43.5974 H         1 SUB1        0.059
     62 H           2.7312    8.2915   44.6192 H         1 SUB1        0.059
     63 H           5.7642    7.9096   44.6633 H         1 SUB1        0.091
     64 H           5.6392    6.6440   40.9575 H         1 SUB1        0.056
     65 H           7.2842    7.0744   41.2801 H         1 SUB1        0.056
     66 H           5.4508    9.0212   40.7589 H         1 SUB1        0.029
     67 H           6.7301    9.3263   41.8566 H         1 SUB1        0.029
     68 H           4.9247    9.7473   43.2342 H         1 SUB1        0.038
     69 H           3.6789    7.2688   35.9274 H         1 SUB1        0.045
     70 H           4.2632    6.0059   37.0577 H         1 SUB1        0.045
     71 H           6.2685    6.2918   38.1457 H         1 SUB1        0.056
     72 H           8.1999    7.7328   38.8191 H         1 SUB1        0.060
     73 H           8.0947   10.1516   38.4290 H         1 SUB1        0.056
     74 H           6.1237   11.1548   37.3414 H         1 SUB1        0.060
     75 H           4.2204    9.7765   36.6800 H         1 SUB1        0.056
@<TRIPOS>BOND
     1    2    1 1  
     2    3    2 ar 
     3    7    2 ar 
     4    4    3 ar 
     5    5    4 ar 
     6    5    6 ar 
     7    8    5 1  
     8    6    7 ar 
     9    8    9 2  
    10    8   10 2  
    11   11    8 1  
    12   11   12 1  
    13   16   11 1  
    14   12   13 1  
    15   13   14 1  
    16   13   15 1  
    17   17   16 1  
    18   17   18 1  
    19   19   17 1  
    20   19   20 1  
    21   32   19 1  
    22   20   21 am 
    23   21   22 2  
    24   21   23 1  
    25   23   24 1  
    26   24   25 1  
    27   24   31 1  
    28   25   26 1  
    29   27   26 1  
    30   27   28 1  
    31   31   27 1  
    32   29   28 1  
    33   30   29 1  
    34   31   30 1  
    35   38   32 1  
    36   33   34 ar 
    37   33   38 ar 
    38   34   35 ar 
    39   35   36 ar 
    40   36   37 ar 
    41   37   38 ar 
    42    1   39 1  
    43    1   40 1  
    44    3   41 1  
    45    4   42 1  
    46    6   43 1  
    47    7   44 1  
    48   12   45 1  
    49   12   46 1  
    50   13   47 1  
    51   14   48 1  
    52   14   49 1  
    53   14   50 1  
    54   15   51 1  
    55   15   52 1  
    56   15   53 1  
    57   16   54 1  
    58   16   55 1  
    59   17   56 1  
    60   18   57 1  
    61   19   58 1  
    62   20   59 1  
    63   24   60 1  
    64   25   61 1  
    65   25   62 1  
    66   27   63 1  
    67   29   64 1  
    68   29   65 1  
    69   30   66 1  
    70   30   67 1  
    71   31   68 1  
    72   32   69 1  
    73   32   70 1  
    74   33   71 1  
    75   34   72 1  
    76   35   73 1  
    77   36   74 1  
    78   37   75 1  
@<TRIPOS>SUBSTRUCTURE
     1 SUB1        1 GROUP

