2hs1_ligand
  -I-interpret- 

 75 78  0  0  0  0  0  0  0  0999 V2000
   -1.2940    8.2620   29.8300 N   0  0  0  0  0
   -0.8280    8.5490   31.1020 C   0  0  0  0  0
    0.4250    8.0880   31.4730 C   0  0  0  0  0
    0.9200    8.3460   32.7100 C   0  0  0  0  0
    0.1980    9.0660   33.6280 C   0  0  0  0  0
   -1.0480    9.5490   33.3140 C   0  0  0  0  0
   -1.5610    9.2870   32.0450 C   0  0  0  0  0
    0.7890    9.2590   35.2520 S   0  0  0  0  0
    2.2310    9.0680   35.1950 O   0  0  0  0  0
    0.2870   10.4610   35.7810 O   0  0  0  0  0
    0.1740    8.0660   36.2430 N   0  0  0  0  0
   -1.2910    8.0190   36.3910 C   0  0  0  0  0
   -1.7500    7.6730   37.7900 C   0  0  0  0  0
   -1.2450    8.6560   38.8220 C   0  0  0  0  0
   -3.2530    7.5460   37.8520 C   0  0  0  0  0
    0.8050    6.7340   36.2310 C   0  0  0  0  0
    1.4980    6.4280   37.5590 C   0  0  0  0  0
    1.8620    5.0460   37.5910 O   0  0  0  0  0
    2.7360    7.2970   37.8680 C   0  0  0  0  0
    3.1030    7.0790   39.2530 N   0  0  0  0  0
    2.9370    8.0290   40.2010 C   0  0  0  0  0
    2.5280    9.2000   40.0720 O   0  0  0  0  0
    3.3030    7.5090   41.3910 O   0  0  0  0  0
    3.4220    8.4640   42.5090 C   0  0  0  0  0
    2.9760    7.6430   43.7780 C   0  0  0  0  0
    4.0980    6.7860   44.0650 O   0  0  0  0  0
    5.2850    7.5520   43.7520 C   0  0  0  0  0
    6.1250    6.7300   43.0080 O   0  0  0  0  0
    6.2670    7.2060   41.6490 C   0  0  0  0  0
    5.8740    8.6700   41.7000 C   0  0  0  0  0
    4.8810    8.7320   42.8400 C   0  0  0  0  0
    3.9560    7.0470   36.9580 C   0  0  0  0  0
    6.2390    7.3670   37.9690 C   0  0  0  0  0
    7.3210    8.1750   38.3500 C   0  0  0  0  0
    7.2620    9.5160   38.1280 C   0  0  0  0  0
    6.1490   10.0800   37.5210 C   0  0  0  0  0
    5.0910    9.3160   37.1470 C   0  0  0  0  0
    5.1240    7.9490   37.3620 C   0  0  0  0  0
   -0.7176    7.7205   29.1858 H   0  0  0  0  0
   -2.2136    8.5921   29.5372 H   0  0  0  0  0
    1.0194    7.5120   30.7637 H   0  0  0  0  0
    1.9088    7.9746   32.9790 H   0  0  0  0  0
   -1.6226   10.1239   34.0402 H   0  0  0  0  0
   -2.5495    9.6619   31.7797 H   0  0  0  0  0
   -1.6611    7.2399   35.7246 H   0  0  0  0  0
   -1.6741    9.0127   36.1587 H   0  0  0  0  0
   -1.3137    6.7048   38.0354 H   0  0  0  0  0
   -0.1550    8.6594   38.8159 H   0  0  0  0  0
   -1.6141    9.6534   38.5830 H   0  0  0  0  0
   -1.6032    8.3614   39.8084 H   0  0  0  0  0
   -3.7087    8.4917   37.5584 H   0  0  0  0  0
   -3.5781    6.7581   37.1725 H   0  0  0  0  0
   -3.5536    7.2968   38.8697 H   0  0  0  0  0
    1.5538    6.7146   35.4391 H   0  0  0  0  0
    0.0288    5.9865   36.0672 H   0  0  0  0  0
    0.7731    6.6728   38.3353 H   0  0  0  0  0
    2.2976    4.8502   38.4238 H   0  0  0  0  0
    2.4500    8.3305   37.6726 H   0  0  0  0  0
    3.4999    6.1786   39.5218 H   0  0  0  0  0
    2.8747    9.3746   42.2656 H   0  0  0  0  0
    2.0634    7.0750   43.5974 H   0  0  0  0  0
    2.7312    8.2915   44.6192 H   0  0  0  0  0
    5.7642    7.9096   44.6633 H   0  0  0  0  0
    5.6392    6.6440   40.9575 H   0  0  0  0  0
    7.2842    7.0744   41.2801 H   0  0  0  0  0
    5.4508    9.0212   40.7589 H   0  0  0  0  0
    6.7301    9.3263   41.8566 H   0  0  0  0  0
    4.9247    9.7473   43.2342 H   0  0  0  0  0
    3.6789    7.2688   35.9274 H   0  0  0  0  0
    4.2632    6.0059   37.0577 H   0  0  0  0  0
    6.2685    6.2918   38.1457 H   0  0  0  0  0
    8.1999    7.7328   38.8191 H   0  0  0  0  0
    8.0947   10.1516   38.4290 H   0  0  0  0  0
    6.1237   11.1548   37.3414 H   0  0  0  0  0
    4.2204    9.7765   36.6800 H   0  0  0  0  0
  2  1  1  0  0  0
  3  2  4  0  0  0
  7  2  4  0  0  0
  4  3  4  0  0  0
  5  4  4  0  0  0
  5  6  4  0  0  0
  8  5  1  0  0  0
  6  7  4  0  0  0
  8  9  2  0  0  0
  8 10  2  0  0  0
 11  8  1  0  0  0
 11 12  1  0  0  0
 16 11  1  0  0  0
 12 13  1  0  0  0
 13 14  1  0  0  0
 13 15  1  0  0  0
 17 16  1  0  0  0
 17 18  1  0  0  0
 19 17  1  0  0  0
 19 20  1  0  0  0
 32 19  1  0  0  0
 20 21  1  0  0  0
 21 22  2  0  0  0
 21 23  1  0  0  0
 23 24  1  0  0  0
 24 25  1  0  0  0
 24 31  1  0  0  0
 25 26  1  0  0  0
 27 26  1  0  0  0
 27 28  1  0  0  0
 31 27  1  0  0  0
 29 28  1  0  0  0
 30 29  1  0  0  0
 31 30  1  0  0  0
 38 32  1  0  0  0
 33 34  4  0  0  0
 33 38  4  0  0  0
 34 35  4  0  0  0
 35 36  4  0  0  0
 36 37  4  0  0  0
 37 38  4  0  0  0
  1 39  1  0  0  0
  1 40  1  0  0  0
  3 41  1  0  0  0
  4 42  1  0  0  0
  6 43  1  0  0  0
  7 44  1  0  0  0
 12 45  1  0  0  0
 12 46  1  0  0  0
 13 47  1  0  0  0
 14 48  1  0  0  0
 14 49  1  0  0  0
 14 50  1  0  0  0
 15 51  1  0  0  0
 15 52  1  0  0  0
 15 53  1  0  0  0
 16 54  1  0  0  0
 16 55  1  0  0  0
 17 56  1  0  0  0
 18 57  1  0  0  0
 19 58  1  0  0  0
 20 59  1  0  0  0
 24 60  1  0  0  0
 25 61  1  0  0  0
 25 62  1  0  0  0
 27 63  1  0  0  0
 29 64  1  0  0  0
 29 65  1  0  0  0
 30 66  1  0  0  0
 30 67  1  0  0  0
 31 68  1  0  0  0
 32 69  1  0  0  0
 32 70  1  0  0  0
 33 71  1  0  0  0
 34 72  1  0  0  0
 35 73  1  0  0  0
 36 74  1  0  0  0
 37 75  1  0  0  0
M  END
$$$$
