### 
### Created by X-TOOL on Mon Oct 24 22:51:48 2005
### 

@<TRIPOS>MOLECULE
1ghy_ligand
   31    33     1     0     0
SMALL
GAST_HUCK


@<TRIPOS>ATOM
      1 H141       11.3917   -9.9213   22.0746 H         1 SUB1        0.057
      2 H151       13.0724   -9.7627   20.2675 H         1 SUB1        0.056
      3 H181       13.0824  -13.6698   23.3748 H         1 SUB1        0.059
      4 H201        9.8728  -12.8834   24.9460 H         1 SUB1        0.192
      5 H202       10.7282  -13.7595   23.6485 H         1 SUB1        0.192
      6 H211       11.5536   -9.8477   24.2770 H         1 SUB1        0.192
      7 H212       10.3554  -10.6584   25.3209 H         1 SUB1        0.192
      8 H231       15.2637  -14.3391   21.8059 H         1 SUB1        0.230
      9 H271       19.3335  -15.0737   20.8716 H         1 SUB1        0.075
     10 H281       20.1154  -14.7819   18.5298 H         1 SUB1        0.071
     11 H291       18.6798  -13.5313   16.9155 H         1 SUB1        0.067
     12 H311       15.5484  -12.1632   17.8608 H         1 SUB1        0.254
     13 C1         12.1290  -11.7940   22.8500 C.ar      1 SUB1        0.174
     14 C2         12.1340  -10.7030   21.9600 C.ar      1 SUB1       -0.021
     15 C3         13.0630  -10.6080   20.9460 C.ar      1 SUB1       -0.056
     16 C4         13.9750  -11.6260   20.8300 C.ar      1 SUB1        0.034
     17 C5         13.9850  -12.6930   21.6780 C.ar      1 SUB1        0.087
     18 C6         13.0700  -12.8160   22.7070 C.ar      1 SUB1        0.015
     19 C7         11.2050  -11.8130   23.8750 C.cat     1 SUB1        0.311
     20 N1         10.5580  -12.8920   24.1770 N.pl3     1 SUB1       -0.201
     21 N2         11.0250  -10.6920   24.5390 N.pl3     1 SUB1       -0.201
     22 N3         14.9670  -11.7520   20.0020 N.2       1 SUB1       -0.304
     23 N4         14.9880  -13.4550   21.3550 N.pl3     1 SUB1       -0.249
     24 C8         15.5810  -12.8680   20.3340 C.2       1 SUB1        0.155
     25 C1'        16.7500  -13.3560   19.7150 C.ar      1 SUB1        0.135
     26 N2'        17.5630  -14.0260   20.5190 N.ar      1 SUB1       -0.291
     27 C3'        18.7250  -14.5340   20.1550 C.ar      1 SUB1        0.004
     28 C4'        19.1630  -14.3720   18.8460 C.ar      1 SUB1       -0.039
     29 C5'        18.3540  -13.6700   17.9400 C.ar      1 SUB1       -0.008
     30 C6'        17.1250  -13.1490   18.3620 C.ar      1 SUB1        0.136
     31 O6'        16.3480  -12.4580   17.4410 O.3       1 SUB1       -0.319
@<TRIPOS>BOND
     1   14    1 1  
     2   15    2 1  
     3   18    3 1  
     4   20    4 1  
     5   20    5 1  
     6   21    6 1  
     7   21    7 1  
     8   23    8 1  
     9   27    9 1  
    10   28   10 1  
    11   29   11 1  
    12   31   12 1  
    13   19   13 1  
    14   13   18 ar 
    15   13   14 ar 
    16   14   15 ar 
    17   15   16 ar 
    18   16   22 1  
    19   17   16 ar 
    20   17   23 1  
    21   18   17 ar 
    22   23   24 1  
    23   24   25 1  
    24   22   24 2  
    25   25   30 ar 
    26   25   26 ar 
    27   26   27 ar 
    28   27   28 ar 
    29   29   28 ar 
    30   30   29 ar 
    31   30   31 1  
    32   19   21 1  
    33   19   20 1  
@<TRIPOS>SUBSTRUCTURE
     1 SUB1        1 GROUP

