### 
### Created by X-TOOL on Sun Jun  3 11:16:50 2007
### 

@<TRIPOS>MOLECULE
2b07_ligand
   59    63     1     0     0
SMALL
GAST_HUCK


@<TRIPOS>ATOM
      1 S1         44.3620   14.1180    0.5200 S.3       1 SUB1        0.039
      2 C2         44.6830   15.3340    1.6850 C.2       1 SUB1        0.164
      3 C3         45.5910   14.9690    2.6490 C.2       1 SUB1        0.194
      4 C4         46.0140   13.6290    2.4370 C.2       1 SUB1        0.139
      5 C5         45.4390   13.0490    1.3430 C.2       1 SUB1        0.117
      6 C6         43.9670   16.7160    1.5230 C.2       1 SUB1        0.115
      7 O7         44.0370   17.5620    2.4670 O.2       1 SUB1       -0.549
      8 O8         43.3800   16.8410    0.4120 O.2       1 SUB1       -0.549
      9 O9         46.0220   15.7410    3.6790 O.3       1 SUB1       -0.279
     10 C10        47.2680   16.4150    3.4510 C.3       1 SUB1        0.185
     11 C11        47.5720   17.1990    4.7270 C.2       1 SUB1        0.376
     12 O14        46.6960   17.1600    5.6320 O.2       1 SUB1       -0.259
     13 O15        48.6730   17.7860    4.7440 O.2       1 SUB1       -0.259
     14 S18        47.1170   12.5550    3.2310 S.3       1 SUB1       -0.007
     15 C19        46.7620   11.3250    2.0640 C.ar      1 SUB1        0.067
     16 C20        45.8400   11.7110    1.0930 C.ar      1 SUB1        0.051
     17 C21        47.3100   10.0270    2.0140 C.ar      1 SUB1        0.004
     18 C22        46.9340    9.1100    1.0050 C.ar      1 SUB1        0.073
     19 C23        46.0130    9.5230    0.0360 C.ar      1 SUB1       -0.015
     20 C24        45.4590   10.8140    0.0650 C.ar      1 SUB1       -0.034
     21 N28        47.5160    7.8510    1.0300 N.pl3     1 SUB1       -0.299
     22 C29        48.5720    7.4510    1.9440 C.3       1 SUB1        0.047
     23 C30        47.9410    6.9520    3.2650 C.3       1 SUB1       -0.011
     24 C31        49.0190    6.4840    4.2370 C.3       1 SUB1        0.032
     25 N32        49.8400    5.4300    3.5400 N.am      1 SUB1       -0.236
     26 C33        50.5370    5.9320    2.2970 C.3       1 SUB1        0.032
     27 C34        49.4680    6.3810    1.3030 C.3       1 SUB1       -0.011
     28 S44        50.6720    4.2940    4.5480 S.o2      1 SUB1        0.051
     29 C45        49.6580    2.8300    4.3100 C.3       1 SUB1        0.118
     30 C46        49.3150    2.6740    2.8490 C.ar      1 SUB1       -0.020
     31 C49        48.0250    2.9940    2.3820 C.ar      1 SUB1       -0.059
     32 C50        47.6950    2.8550    1.0240 C.ar      1 SUB1       -0.068
     33 C51        48.6570    2.3980    0.1190 C.ar      1 SUB1       -0.069
     34 C52        49.9480    2.0760    0.5670 C.ar      1 SUB1       -0.068
     35 C53        50.2760    2.2120    1.9250 C.ar      1 SUB1       -0.059
     36 O59        50.5680    4.7260    5.9280 O.2       1 SUB1       -0.153
     37 O60        51.9810    4.0690    3.9540 O.2       1 SUB1       -0.153
     38 H          47.2022   17.0793    2.5893 H         1 SUB1        0.085
     39 H          48.0635   15.7036    3.2294 H         1 SUB1        0.085
     40 H          48.0373    9.7244    2.7673 H         1 SUB1        0.060
     41 H          45.7204    8.8318   -0.7544 H         1 SUB1        0.060
     42 H          44.7427   11.1224   -0.6965 H         1 SUB1        0.075
     43 H          47.1794    7.1587    0.3608 H         1 SUB1        0.194
     44 H          49.2075    8.3084    2.1658 H         1 SUB1        0.058
     45 H          47.2792    6.1145    3.0441 H         1 SUB1        0.031
     46 H          47.3876    7.7723    3.7221 H         1 SUB1        0.031
     47 H          48.5640    6.0747    5.1389 H         1 SUB1        0.048
     48 H          49.6506    7.3212    4.5339 H         1 SUB1        0.048
     49 H          51.1461    5.1398    1.8617 H         1 SUB1        0.048
     50 H          51.1937    6.7659    2.5450 H         1 SUB1        0.048
     51 H          49.9518    6.7997    0.4205 H         1 SUB1        0.031
     52 H          48.8572    5.5233    1.0211 H         1 SUB1        0.031
     53 H          48.7383    2.9325    4.8860 H         1 SUB1        0.068
     54 H          50.2103    1.9521    4.6451 H         1 SUB1        0.068
     55 H          47.2730    3.3543    3.0840 H         1 SUB1        0.056
     56 H          46.6919    3.1027    0.6770 H         1 SUB1        0.060
     57 H          48.4046    2.2914   -0.9360 H         1 SUB1        0.056
     58 H          50.6966    1.7199   -0.1407 H         1 SUB1        0.060
     59 H          51.2793    1.9591    2.2678 H         1 SUB1        0.056
@<TRIPOS>BOND
     1    1    2 1  
     2    1    5 1  
     3    2    3 2  
     4    2    6 1  
     5    3    4 1  
     6    3    9 1  
     7    4    5 2  
     8    4   14 1  
     9    5   16 1  
    10    6    7 2  
    11    6    8 2  
    12    9   10 1  
    13   10   11 1  
    14   11   12 2  
    15   11   13 2  
    16   14   15 1  
    17   15   16 ar 
    18   15   17 ar 
    19   16   20 ar 
    20   17   18 ar 
    21   18   19 ar 
    22   18   21 1  
    23   19   20 ar 
    24   21   22 1  
    25   22   23 1  
    26   22   27 1  
    27   23   24 1  
    28   24   25 1  
    29   25   26 1  
    30   25   28 1  
    31   26   27 1  
    32   28   29 1  
    33   28   36 2  
    34   28   37 2  
    35   29   30 1  
    36   30   31 ar 
    37   30   35 ar 
    38   31   32 ar 
    39   32   33 ar 
    40   33   34 ar 
    41   34   35 ar 
    42   10   38 1  
    43   10   39 1  
    44   17   40 1  
    45   19   41 1  
    46   20   42 1  
    47   21   43 1  
    48   22   44 1  
    49   23   45 1  
    50   23   46 1  
    51   24   47 1  
    52   24   48 1  
    53   26   49 1  
    54   26   50 1  
    55   27   51 1  
    56   27   52 1  
    57   29   53 1  
    58   29   54 1  
    59   31   55 1  
    60   32   56 1  
    61   33   57 1  
    62   34   58 1  
    63   35   59 1  
@<TRIPOS>SUBSTRUCTURE
     1 SUB1        1 GROUP

