2b07_ligand
  -I-interpret- 

 59 63  0  0  0  0  0  0  0  0999 V2000
   44.3620   14.1180    0.5200 S   0  0  0  0  0
   44.6830   15.3340    1.6850 C   0  0  0  0  0
   45.5910   14.9690    2.6490 C   0  0  0  0  0
   46.0140   13.6290    2.4370 C   0  0  0  0  0
   45.4390   13.0490    1.3430 C   0  0  0  0  0
   43.9670   16.7160    1.5230 C   0  0  0  0  0
   44.0370   17.5620    2.4670 O   0  5  0  0  0
   43.3800   16.8410    0.4120 O   0  0  0  0  0
   46.0220   15.7410    3.6790 O   0  0  0  0  0
   47.2680   16.4150    3.4510 C   0  0  0  0  0
   47.5720   17.1990    4.7270 C   0  0  0  0  0
   46.6960   17.1600    5.6320 O   0  5  0  0  0
   48.6730   17.7860    4.7440 O   0  0  0  0  0
   47.1170   12.5550    3.2310 S   0  0  0  0  0
   46.7620   11.3250    2.0640 C   0  0  0  0  0
   45.8400   11.7110    1.0930 C   0  0  0  0  0
   47.3100   10.0270    2.0140 C   0  0  0  0  0
   46.9340    9.1100    1.0050 C   0  0  0  0  0
   46.0130    9.5230    0.0360 C   0  0  0  0  0
   45.4590   10.8140    0.0650 C   0  0  0  0  0
   47.5160    7.8510    1.0300 N   0  0  0  0  0
   48.5720    7.4510    1.9440 C   0  0  0  0  0
   47.9410    6.9520    3.2650 C   0  0  0  0  0
   49.0190    6.4840    4.2370 C   0  0  0  0  0
   49.8400    5.4300    3.5400 N   0  0  0  0  0
   50.5370    5.9320    2.2970 C   0  0  0  0  0
   49.4680    6.3810    1.3030 C   0  0  0  0  0
   50.6720    4.2940    4.5480 S   0  0  0  0  0
   49.6580    2.8300    4.3100 C   0  0  0  0  0
   49.3150    2.6740    2.8490 C   0  0  0  0  0
   48.0250    2.9940    2.3820 C   0  0  0  0  0
   47.6950    2.8550    1.0240 C   0  0  0  0  0
   48.6570    2.3980    0.1190 C   0  0  0  0  0
   49.9480    2.0760    0.5670 C   0  0  0  0  0
   50.2760    2.2120    1.9250 C   0  0  0  0  0
   50.5680    4.7260    5.9280 O   0  0  0  0  0
   51.9810    4.0690    3.9540 O   0  0  0  0  0
   47.2022   17.0793    2.5893 H   0  0  0  0  0
   48.0635   15.7036    3.2294 H   0  0  0  0  0
   48.0373    9.7244    2.7673 H   0  0  0  0  0
   45.7204    8.8318   -0.7544 H   0  0  0  0  0
   44.7427   11.1224   -0.6965 H   0  0  0  0  0
   47.1794    7.1587    0.3608 H   0  0  0  0  0
   49.2075    8.3084    2.1658 H   0  0  0  0  0
   47.2792    6.1145    3.0441 H   0  0  0  0  0
   47.3876    7.7723    3.7221 H   0  0  0  0  0
   48.5640    6.0747    5.1389 H   0  0  0  0  0
   49.6506    7.3212    4.5339 H   0  0  0  0  0
   51.1461    5.1398    1.8617 H   0  0  0  0  0
   51.1937    6.7659    2.5450 H   0  0  0  0  0
   49.9518    6.7997    0.4205 H   0  0  0  0  0
   48.8572    5.5233    1.0211 H   0  0  0  0  0
   48.7383    2.9325    4.8860 H   0  0  0  0  0
   50.2103    1.9521    4.6451 H   0  0  0  0  0
   47.2730    3.3543    3.0840 H   0  0  0  0  0
   46.6919    3.1027    0.6770 H   0  0  0  0  0
   48.4046    2.2914   -0.9360 H   0  0  0  0  0
   50.6966    1.7199   -0.1407 H   0  0  0  0  0
   51.2793    1.9591    2.2678 H   0  0  0  0  0
  1  2  1  0  0  0
  1  5  1  0  0  0
  2  3  2  0  0  0
  2  6  1  0  0  0
  3  4  1  0  0  0
  3  9  1  0  0  0
  4  5  2  0  0  0
  4 14  1  0  0  0
  5 16  1  0  0  0
  6  7  1  0  0  0
  6  8  2  0  0  0
  9 10  1  0  0  0
 10 11  1  0  0  0
 11 12  1  0  0  0
 11 13  2  0  0  0
 14 15  1  0  0  0
 15 16  4  0  0  0
 15 17  4  0  0  0
 16 20  4  0  0  0
 17 18  4  0  0  0
 18 19  4  0  0  0
 18 21  1  0  0  0
 19 20  4  0  0  0
 21 22  1  0  0  0
 22 23  1  0  0  0
 22 27  1  0  0  0
 23 24  1  0  0  0
 24 25  1  0  0  0
 25 26  1  0  0  0
 25 28  1  0  0  0
 26 27  1  0  0  0
 28 29  1  0  0  0
 28 36  2  0  0  0
 28 37  2  0  0  0
 29 30  1  0  0  0
 30 31  4  0  0  0
 30 35  4  0  0  0
 31 32  4  0  0  0
 32 33  4  0  0  0
 33 34  4  0  0  0
 34 35  4  0  0  0
 10 38  1  0  0  0
 10 39  1  0  0  0
 17 40  1  0  0  0
 19 41  1  0  0  0
 20 42  1  0  0  0
 21 43  1  0  0  0
 22 44  1  0  0  0
 23 45  1  0  0  0
 23 46  1  0  0  0
 24 47  1  0  0  0
 24 48  1  0  0  0
 26 49  1  0  0  0
 26 50  1  0  0  0
 27 51  1  0  0  0
 27 52  1  0  0  0
 29 53  1  0  0  0
 29 54  1  0  0  0
 31 55  1  0  0  0
 32 56  1  0  0  0
 33 57  1  0  0  0
 34 58  1  0  0  0
 35 59  1  0  0  0
M  END
$$$$
