### 
### Created by X-TOOL on Tue Oct 25 02:03:02 2005
### 

@<TRIPOS>MOLECULE
1v2q_ligand
   55    56     1     0     0
SMALL
GAST_HUCK


@<TRIPOS>ATOM
      1 N12        -2.2800   18.9300   17.9170 N.am      1 SUB1       -0.261
      2 C13        -3.4640   18.2170   18.4920 C.3       1 SUB1        0.152
      3 C30        -2.9710   17.2080   19.5280 C.3       1 SUB1        0.023
      4 C14        -4.6140   19.1340   19.1410 C.2       1 SUB1        0.261
      5 O17        -5.7990   18.9310   18.7760 O.2       1 SUB1       -0.368
      6 O15        -4.2630   20.1560   20.1100 O.3       1 SUB1       -0.278
      7 C16        -2.9090   20.4780   20.6100 C.3       1 SUB1        0.066
      8 C21        -2.1670   16.0220   19.0020 C.ar      1 SUB1       -0.034
      9 C22        -1.0870   15.5360   19.7790 C.ar      1 SUB1       -0.060
     10 C23        -0.3060   14.4310   19.3350 C.ar      1 SUB1       -0.064
     11 C24        -0.6080   13.8010   18.0980 C.ar      1 SUB1       -0.014
     12 C25        -1.7090   14.2500   17.2450 C.ar      1 SUB1        0.179
     13 C26        -2.4810   15.3820   17.7350 C.ar      1 SUB1       -0.005
     14 C27        -1.9920   13.6130   16.0220 C.cat     1 SUB1        0.315
     15 N28        -2.6100   14.1680   15.0120 N.pl3     1 SUB1       -0.200
     16 N29        -1.6720   12.3600   15.7290 N.pl3     1 SUB1       -0.200
     17 C11        -2.3410   19.8660   16.9590 C.2       1 SUB1        0.197
     18 C10        -1.0710   20.6410   16.6560 C.3       1 SUB1        0.116
     19 N9         -0.9820   21.2180   15.2790 N.am      1 SUB1       -0.229
     20 O20        -3.3590   20.1090   16.3220 O.2       1 SUB1       -0.395
     21 C1          2.8230   25.1510   19.2420 C.3       1 SUB1       -0.031
     22 C2          1.9690   24.5760   18.1720 C.ar      1 SUB1       -0.046
     23 C3          2.5140   23.8190   17.0730 C.ar      1 SUB1       -0.059
     24 C4          1.6330   23.2820   16.0740 C.ar      1 SUB1       -0.042
     25 C5          0.2180   23.5290   16.2140 C.ar      1 SUB1        0.101
     26 C6         -0.3070   24.2810   17.2990 C.ar      1 SUB1       -0.042
     27 C7          0.5700   24.7960   18.2670 C.ar      1 SUB1       -0.059
     28 S8         -0.9330   22.9050   15.0710 S.o2      1 SUB1        0.067
     29 O18        -0.5630   23.1630   13.5340 O.2       1 SUB1       -0.151
     30 O19        -2.3840   23.3400   15.4840 O.2       1 SUB1       -0.151
     31 H11        -1.3770   18.6905   18.2737 H         1 SUB1        0.189
     32 H21        -3.9326   17.6617   17.6662 H         1 SUB1        0.084
     33 H31        -3.8530   16.8076   20.0493 H         1 SUB1        0.047
     34 H32        -2.3359   17.7495   20.2446 H         1 SUB1        0.047
     35 H71        -2.9727   21.3015   21.3365 H         1 SUB1        0.058
     36 H72        -2.2695   20.7808   19.7678 H         1 SUB1        0.058
     37 H73        -2.4777   19.5914   21.0977 H         1 SUB1        0.058
     38 H91        -0.8518   16.0116   20.7243 H         1 SUB1        0.056
     39 H101        0.5181   14.0710   19.9403 H         1 SUB1        0.060
     40 H111       -0.0035   12.9609   17.7757 H         1 SUB1        0.061
     41 H131       -3.3081   15.7561   17.1425 H         1 SUB1        0.060
     42 H151       -2.7769   13.6283   14.1508 H         1 SUB1        0.192
     43 H152       -2.9299   15.1449   15.0777 H         1 SUB1        0.192
     44 H161       -1.1777   11.7793   16.4214 H         1 SUB1        0.192
     45 H162       -1.9178   11.9674   14.8090 H         1 SUB1        0.192
     46 H181       -0.2177   19.9607   16.7942 H         1 SUB1        0.072
     47 H182       -0.9997   21.4696   17.3759 H         1 SUB1        0.072
     48 H191       -0.9514   20.6135   14.4830 H         1 SUB1        0.170
     49 H211        3.8763   24.9048   19.0424 H         1 SUB1        0.039
     50 H212        2.5260   24.7303   20.2140 H         1 SUB1        0.039
     51 H213        2.6994   26.2438   19.2623 H         1 SUB1        0.039
     52 H231        3.5832   23.6559   17.0010 H         1 SUB1        0.056
     53 H241        2.0194   22.7081   15.2395 H         1 SUB1        0.062
     54 H261       -1.3739   24.4554   17.3787 H         1 SUB1        0.062
     55 H271        0.1736   25.3689   19.0975 H         1 SUB1        0.056
@<TRIPOS>BOND
     1    1    2 1  
     2   17    1 am 
     3    2    3 1  
     4    2    4 1  
     5    3    8 1  
     6    4    5 2  
     7    4    6 1  
     8    6    7 1  
     9    8    9 ar 
    10    8   13 ar 
    11    9   10 ar 
    12   10   11 ar 
    13   12   11 ar 
    14   13   12 ar 
    15   12   14 1  
    16   14   15 1  
    17   14   16 1  
    18   18   17 1  
    19   17   20 2  
    20   19   18 1  
    21   28   19 am 
    22   22   21 1  
    23   23   22 ar 
    24   22   27 ar 
    25   24   23 ar 
    26   25   24 ar 
    27   25   26 ar 
    28   25   28 1  
    29   26   27 ar 
    30   28   29 2  
    31   28   30 2  
    32    1   31 1  
    33    2   32 1  
    34    3   33 1  
    35    3   34 1  
    36    7   35 1  
    37    7   36 1  
    38    7   37 1  
    39    9   38 1  
    40   10   39 1  
    41   11   40 1  
    42   13   41 1  
    43   15   42 1  
    44   15   43 1  
    45   16   44 1  
    46   16   45 1  
    47   18   46 1  
    48   18   47 1  
    49   19   48 1  
    50   21   49 1  
    51   21   50 1  
    52   21   51 1  
    53   23   52 1  
    54   24   53 1  
    55   26   54 1  
    56   27   55 1  
@<TRIPOS>SUBSTRUCTURE
     1 SUB1        1 GROUP

