1v2q_ligand
  -I-interpret- 

 55 56  0  0  0  0  0  0  0  0999 V2000
   -2.2800   18.9300   17.9170 N   0  0  0  0  0
   -3.4640   18.2170   18.4920 C   0  0  0  0  0
   -2.9710   17.2080   19.5280 C   0  0  0  0  0
   -4.6140   19.1340   19.1410 C   0  0  0  0  0
   -5.7990   18.9310   18.7760 O   0  0  0  0  0
   -4.2630   20.1560   20.1100 O   0  0  0  0  0
   -2.9090   20.4780   20.6100 C   0  0  0  0  0
   -2.1670   16.0220   19.0020 C   0  0  0  0  0
   -1.0870   15.5360   19.7790 C   0  0  0  0  0
   -0.3060   14.4310   19.3350 C   0  0  0  0  0
   -0.6080   13.8010   18.0980 C   0  0  0  0  0
   -1.7090   14.2500   17.2450 C   0  0  0  0  0
   -2.4810   15.3820   17.7350 C   0  0  0  0  0
   -1.9920   13.6130   16.0220 C   0  3  0  0  0
   -2.6100   14.1680   15.0120 N   0  0  0  0  0
   -1.6720   12.3600   15.7290 N   0  0  0  0  0
   -2.3410   19.8660   16.9590 C   0  0  0  0  0
   -1.0710   20.6410   16.6560 C   0  0  0  0  0
   -0.9820   21.2180   15.2790 N   0  0  0  0  0
   -3.3590   20.1090   16.3220 O   0  0  0  0  0
    2.8230   25.1510   19.2420 C   0  0  0  0  0
    1.9690   24.5760   18.1720 C   0  0  0  0  0
    2.5140   23.8190   17.0730 C   0  0  0  0  0
    1.6330   23.2820   16.0740 C   0  0  0  0  0
    0.2180   23.5290   16.2140 C   0  0  0  0  0
   -0.3070   24.2810   17.2990 C   0  0  0  0  0
    0.5700   24.7960   18.2670 C   0  0  0  0  0
   -0.9330   22.9050   15.0710 S   0  0  0  0  0
   -0.5630   23.1630   13.5340 O   0  0  0  0  0
   -2.3840   23.3400   15.4840 O   0  0  0  0  0
   -1.3770   18.6905   18.2737 H   0  0  0  0  0
   -3.9326   17.6617   17.6662 H   0  0  0  0  0
   -3.8530   16.8076   20.0493 H   0  0  0  0  0
   -2.3359   17.7495   20.2446 H   0  0  0  0  0
   -2.9727   21.3015   21.3365 H   0  0  0  0  0
   -2.2695   20.7808   19.7678 H   0  0  0  0  0
   -2.4777   19.5914   21.0977 H   0  0  0  0  0
   -0.8518   16.0116   20.7243 H   0  0  0  0  0
    0.5181   14.0710   19.9403 H   0  0  0  0  0
   -0.0035   12.9609   17.7757 H   0  0  0  0  0
   -3.3081   15.7561   17.1425 H   0  0  0  0  0
   -2.7769   13.6283   14.1508 H   0  0  0  0  0
   -2.9299   15.1449   15.0777 H   0  0  0  0  0
   -1.1777   11.7793   16.4214 H   0  0  0  0  0
   -1.9178   11.9674   14.8090 H   0  0  0  0  0
   -0.2177   19.9607   16.7942 H   0  0  0  0  0
   -0.9997   21.4696   17.3759 H   0  0  0  0  0
   -0.9514   20.6135   14.4830 H   0  0  0  0  0
    3.8763   24.9048   19.0424 H   0  0  0  0  0
    2.5260   24.7303   20.2140 H   0  0  0  0  0
    2.6994   26.2438   19.2623 H   0  0  0  0  0
    3.5832   23.6559   17.0010 H   0  0  0  0  0
    2.0194   22.7081   15.2395 H   0  0  0  0  0
   -1.3739   24.4554   17.3787 H   0  0  0  0  0
    0.1736   25.3689   19.0975 H   0  0  0  0  0
  1  2  1  0  0  0
 17  1  1  0  0  0
  2  3  1  0  0  0
  2  4  1  0  0  0
  3  8  1  0  0  0
  4  5  2  0  0  0
  4  6  1  0  0  0
  6  7  1  0  0  0
  8  9  4  0  0  0
  8 13  4  0  0  0
  9 10  4  0  0  0
 10 11  4  0  0  0
 12 11  4  0  0  0
 13 12  4  0  0  0
 12 14  1  0  0  0
 14 15  1  0  0  0
 14 16  1  0  0  0
 18 17  1  0  0  0
 17 20  2  0  0  0
 19 18  1  0  0  0
 28 19  1  0  0  0
 22 21  1  0  0  0
 23 22  4  0  0  0
 22 27  4  0  0  0
 24 23  4  0  0  0
 25 24  4  0  0  0
 25 26  4  0  0  0
 25 28  1  0  0  0
 26 27  4  0  0  0
 28 29  2  0  0  0
 28 30  2  0  0  0
  1 31  1  0  0  0
  2 32  1  0  0  0
  3 33  1  0  0  0
  3 34  1  0  0  0
  7 35  1  0  0  0
  7 36  1  0  0  0
  7 37  1  0  0  0
  9 38  1  0  0  0
 10 39  1  0  0  0
 11 40  1  0  0  0
 13 41  1  0  0  0
 15 42  1  0  0  0
 15 43  1  0  0  0
 16 44  1  0  0  0
 16 45  1  0  0  0
 18 46  1  0  0  0
 18 47  1  0  0  0
 19 48  1  0  0  0
 21 49  1  0  0  0
 21 50  1  0  0  0
 21 51  1  0  0  0
 23 52  1  0  0  0
 24 53  1  0  0  0
 26 54  1  0  0  0
 27 55  1  0  0  0
M  END
$$$$
