1d4p_ligand
  -I-interpret- 

 52 55  0  0  0  0  0  0  0  0999 V2000
  -23.4958  -33.9900   23.3308 H   0  0  0  0  0
  -22.4190  -29.6085   21.0789 H   0  0  0  0  0
  -24.2266  -29.7232   22.7977 H   0  0  0  0  0
  -21.3108  -34.9487   21.5574 H   0  0  0  0  0
  -20.5355  -31.1957   19.7727 H   0  0  0  0  0
  -25.8321  -30.6188   25.5854 H   0  0  0  0  0
  -24.5174  -29.9008   24.6165 H   0  0  0  0  0
  -25.6062  -33.7598   23.9382 H   0  0  0  0  0
  -26.4366  -32.8286   25.2134 H   0  0  0  0  0
  -16.0786  -33.2803   19.2699 H   0  0  0  0  0
  -17.1048  -34.3913   18.3008 H   0  0  0  0  0
  -15.4685  -35.6840   19.7850 H   0  0  0  0  0
  -17.1786  -36.0248   20.2163 H   0  0  0  0  0
  -15.2937  -34.0567   21.5828 H   0  0  0  0  0
  -17.1441  -33.6137   23.2196 H   0  0  0  0  0
  -18.2321  -34.7237   22.3190 H   0  0  0  0  0
  -18.6763  -32.3724   21.7150 H   0  0  0  0  0
  -16.9653  -32.1795   21.2034 H   0  0  0  0  0
  -14.9009  -36.5029   22.1472 H   0  0  0  0  0
  -16.5868  -36.5826   22.7620 H   0  0  0  0  0
  -17.1433  -35.6903   25.0291 H   0  0  0  0  0
  -16.3677  -34.7730   27.2128 H   0  0  0  0  0
  -14.0276  -33.9191   27.4097 H   0  0  0  0  0
  -12.4756  -33.9757   25.4616 H   0  0  0  0  0
  -13.2310  -34.8856   23.2845 H   0  0  0  0  0
  -23.9770  -31.8420   23.1850 C   0  0  0  0  0
  -23.2620  -33.0490   22.8460 C   0  0  0  0  0
  -22.2410  -32.9690   21.8570 C   0  0  0  0  0
  -21.9390  -31.7360   21.2190 C   0  0  0  0  0
  -22.6540  -30.5500   21.5620 C   0  0  0  0  0
  -23.6720  -30.6180   22.5390 C   0  0  0  0  0
  -21.3610  -33.8910   21.3030 C   0  0  0  0  0
  -20.5500  -33.2420   20.3660 C   0  0  0  0  0
  -20.9500  -31.9310   20.3630 N   0  0  0  0  0
  -24.9870  -31.8380   24.1860 C   0  3  0  0  0
  -25.1220  -30.7030   24.8440 N   0  0  0  0  0
  -25.7300  -32.8840   24.4660 N   0  0  0  0  0
  -19.4790  -33.7530   19.5580 C   0  0  0  0  0
  -19.6650  -34.3370   18.4800 O   0  0  0  0  0
  -18.0940  -33.5610   20.0610 N   0  0  0  0  0
  -16.8530  -34.0600   19.3190 C   0  0  0  0  0
  -16.3920  -35.2560   20.2020 C   0  0  0  0  0
  -16.1290  -34.7710   21.6280 C   0  0  0  0  0
  -17.3950  -34.0160   22.2270 C   0  0  0  0  0
  -17.7910  -32.8960   21.3250 C   0  0  0  0  0
  -15.7200  -35.9250   22.6000 C   0  0  0  0  0
  -15.2460  -35.3600   23.9730 C   0  0  0  0  0
  -16.1300  -35.3170   25.1240 C   0  0  0  0  0
  -15.6990  -34.8010   26.3600 C   0  0  0  0  0
  -14.3740  -34.3200   26.4640 C   0  0  0  0  0
  -13.4870  -34.3510   25.3550 C   0  0  0  0  0
  -13.9140  -34.8640   24.1260 C   0  0  0  0  0
 27  1  1  0  0  0
 30  2  1  0  0  0
 31  3  1  0  0  0
 32  4  1  0  0  0
 34  5  1  0  0  0
 36  6  1  0  0  0
 36  7  1  0  0  0
 37  8  1  0  0  0
 37  9  1  0  0  0
 41 10  1  0  0  0
 41 11  1  0  0  0
 42 12  1  0  0  0
 42 13  1  0  0  0
 43 14  1  0  0  0
 44 15  1  0  0  0
 44 16  1  0  0  0
 45 17  1  0  0  0
 45 18  1  0  0  0
 46 19  1  0  0  0
 46 20  1  0  0  0
 48 21  1  0  0  0
 49 22  1  0  0  0
 50 23  1  0  0  0
 51 24  1  0  0  0
 52 25  1  0  0  0
 35 26  1  0  0  0
 26 31  4  0  0  0
 26 27  4  0  0  0
 27 28  4  0  0  0
 28 32  1  0  0  0
 28 29  4  0  0  0
 29 34  1  0  0  0
 30 29  4  0  0  0
 31 30  4  0  0  0
 34 33  1  0  0  0
 33 38  1  0  0  0
 32 33  2  0  0  0
 38 40  1  0  0  0
 38 39  2  0  0  0
 40 45  1  0  0  0
 40 41  1  0  0  0
 41 42  1  0  0  0
 42 43  1  0  0  0
 43 46  1  0  0  0
 44 43  1  0  0  0
 45 44  1  0  0  0
 46 47  1  0  0  0
 47 52  4  0  0  0
 47 48  4  0  0  0
 48 49  4  0  0  0
 49 50  4  0  0  0
 51 50  4  0  0  0
 52 51  4  0  0  0
 35 37  1  0  0  0
 35 36  1  0  0  0
M  END
$$$$
