### 
### Created by X-TOOL on Tue Oct 25 00:24:57 2005
### 

@<TRIPOS>MOLECULE
1d4p_ligand
   52    55     1     0     0
SMALL
GAST_HUCK


@<TRIPOS>ATOM
      1 H271      -23.4958  -33.9900   23.3308 H         1 SUB1        0.060
      2 H301      -22.4190  -29.6085   21.0789 H         1 SUB1        0.055
      3 H311      -24.2266  -29.7232   22.7977 H         1 SUB1        0.060
      4 H321      -21.3108  -34.9487   21.5574 H         1 SUB1        0.040
      5 H341      -20.5355  -31.1957   19.7727 H         1 SUB1        0.226
      6 H361      -25.8321  -30.6188   25.5854 H         1 SUB1        0.192
      7 H362      -24.5174  -29.9008   24.6165 H         1 SUB1        0.192
      8 H371      -25.6062  -33.7598   23.9382 H         1 SUB1        0.192
      9 H372      -26.4366  -32.8286   25.2134 H         1 SUB1        0.192
     10 H411      -16.0786  -33.2803   19.2699 H         1 SUB1        0.052
     11 H412      -17.1048  -34.3913   18.3008 H         1 SUB1        0.052
     12 H421      -15.4685  -35.6840   19.7850 H         1 SUB1        0.029
     13 H422      -17.1786  -36.0248   20.2163 H         1 SUB1        0.029
     14 H431      -15.2937  -34.0567   21.5828 H         1 SUB1        0.032
     15 H441      -17.1441  -33.6137   23.2196 H         1 SUB1        0.029
     16 H442      -18.2321  -34.7237   22.3190 H         1 SUB1        0.029
     17 H451      -18.6763  -32.3724   21.7150 H         1 SUB1        0.052
     18 H452      -16.9653  -32.1795   21.2034 H         1 SUB1        0.052
     19 H461      -14.9009  -36.5029   22.1472 H         1 SUB1        0.043
     20 H462      -16.5868  -36.5826   22.7620 H         1 SUB1        0.043
     21 H481      -17.1433  -35.6903   25.0291 H         1 SUB1        0.056
     22 H491      -16.3677  -34.7730   27.2128 H         1 SUB1        0.060
     23 H501      -14.0276  -33.9191   27.4097 H         1 SUB1        0.056
     24 H511      -12.4756  -33.9757   25.4616 H         1 SUB1        0.060
     25 H521      -13.2310  -34.8856   23.2845 H         1 SUB1        0.056
     26 C1        -23.9770  -31.8420   23.1850 C.ar      1 SUB1        0.171
     27 C2        -23.2620  -33.0490   22.8460 C.ar      1 SUB1       -0.016
     28 C3        -22.2410  -32.9690   21.8570 C.ar      1 SUB1       -0.013
     29 C4        -21.9390  -31.7360   21.2190 C.ar      1 SUB1        0.068
     30 C5        -22.6540  -30.5500   21.5620 C.ar      1 SUB1       -0.036
     31 C6        -23.6720  -30.6180   22.5390 C.ar      1 SUB1       -0.019
     32 C10       -21.3610  -33.8910   21.3030 C.2       1 SUB1       -0.039
     33 C11       -20.5500  -33.2420   20.3660 C.2       1 SUB1        0.132
     34 N12       -20.9500  -31.9310   20.3630 N.pl3     1 SUB1       -0.267
     35 C13       -24.9870  -31.8380   24.1860 C.cat     1 SUB1        0.310
     36 N14       -25.1220  -30.7030   24.8440 N.pl3     1 SUB1       -0.201
     37 N15       -25.7300  -32.8840   24.4660 N.pl3     1 SUB1       -0.201
     38 C17       -19.4790  -33.7530   19.5580 C.2       1 SUB1        0.229
     39 O18       -19.6650  -34.3370   18.4800 O.2       1 SUB1       -0.384
     40 N19       -18.0940  -33.5610   20.0610 N.am      1 SUB1       -0.271
     41 C20       -16.8530  -34.0600   19.3190 C.3       1 SUB1        0.034
     42 C21       -16.3920  -35.2560   20.2020 C.3       1 SUB1       -0.028
     43 C22       -16.1290  -34.7710   21.6280 C.3       1 SUB1       -0.028
     44 C23       -17.3950  -34.0160   22.2270 C.3       1 SUB1       -0.028
     45 C24       -17.7910  -32.8960   21.3250 C.3       1 SUB1        0.034
     46 C33       -15.7200  -35.9250   22.6000 C.3       1 SUB1       -0.016
     47 C35       -15.2460  -35.3600   23.9730 C.ar      1 SUB1       -0.043
     48 C38       -16.1300  -35.3170   25.1240 C.ar      1 SUB1       -0.060
     49 C39       -15.6990  -34.8010   26.3600 C.ar      1 SUB1       -0.069
     50 C40       -14.3740  -34.3200   26.4640 C.ar      1 SUB1       -0.069
     51 C41       -13.4870  -34.3510   25.3550 C.ar      1 SUB1       -0.069
     52 C42       -13.9140  -34.8640   24.1260 C.ar      1 SUB1       -0.060
@<TRIPOS>BOND
     1   27    1 1  
     2   30    2 1  
     3   31    3 1  
     4   32    4 1  
     5   34    5 1  
     6   36    6 1  
     7   36    7 1  
     8   37    8 1  
     9   37    9 1  
    10   41   10 1  
    11   41   11 1  
    12   42   12 1  
    13   42   13 1  
    14   43   14 1  
    15   44   15 1  
    16   44   16 1  
    17   45   17 1  
    18   45   18 1  
    19   46   19 1  
    20   46   20 1  
    21   48   21 1  
    22   49   22 1  
    23   50   23 1  
    24   51   24 1  
    25   52   25 1  
    26   35   26 1  
    27   26   31 ar 
    28   26   27 ar 
    29   27   28 ar 
    30   28   32 1  
    31   28   29 ar 
    32   29   34 1  
    33   30   29 ar 
    34   31   30 ar 
    35   34   33 1  
    36   33   38 1  
    37   32   33 2  
    38   38   40 am 
    39   38   39 2  
    40   40   45 1  
    41   40   41 1  
    42   41   42 1  
    43   42   43 1  
    44   43   46 1  
    45   44   43 1  
    46   45   44 1  
    47   46   47 1  
    48   47   52 ar 
    49   47   48 ar 
    50   48   49 ar 
    51   49   50 ar 
    52   51   50 ar 
    53   52   51 ar 
    54   35   37 1  
    55   35   36 1  
@<TRIPOS>SUBSTRUCTURE
     1 SUB1        1 GROUP

