### 
### Created by X-TOOL on Tue Oct 25 02:05:22 2005
### 

@<TRIPOS>MOLECULE
1r1j_ligand
   51    52     1     0     0
SMALL
GAST_HUCK


@<TRIPOS>ATOM
      1 O19        30.8520   42.7220   31.3250 O.2       1 SUB1       -0.396
      2 C18        29.6840   43.0690   31.2770 C.2       1 SUB1        0.193
      3 C20        28.8210   42.5200   30.1900 C.3       1 SUB1        0.101
      4 C21        27.3490   42.5030   30.5750 C.3       1 SUB1        0.010
      5 C23        26.9810   41.0750   30.9050 C.ar      1 SUB1       -0.040
      6 C24        25.7650   40.7800   31.5070 C.ar      1 SUB1       -0.060
      7 C25        25.4430   39.4640   31.8130 C.ar      1 SUB1       -0.069
      8 C26        26.3360   38.4400   31.5150 C.ar      1 SUB1       -0.069
      9 C27        27.5500   38.7350   30.9110 C.ar      1 SUB1       -0.069
     10 C28        27.8730   40.0530   30.6080 C.ar      1 SUB1       -0.060
     11 S26        29.1040   43.5790   28.7620 S.3       1 SUB1       -0.151
     12 N9         29.1750   43.9410   32.1370 N.am      1 SUB1       -0.263
     13 C2         30.1140   44.3860   33.1580 C.3       1 SUB1        0.140
     14 C11        30.3430   43.3050   34.1830 C.2       1 SUB1        0.207
     15 O12        31.4780   43.0150   34.4980 O.2       1 SUB1       -0.394
     16 N13        29.2790   42.6990   34.6910 N.am      1 SUB1       -0.268
     17 C14        29.3920   41.7930   35.8250 C.3       1 SUB1        0.079
     18 C15        28.4640   40.6230   35.6670 C.2       1 SUB1        0.053
     19 O16        27.5030   40.7320   34.9240 O.co2     1 SUB1       -0.564
     20 O17        28.6620   39.5700   36.2620 O.co2     1 SUB1       -0.564
     21 C19        29.0570   42.5400   37.1140 C.3       1 SUB1       -0.030
     22 C1         29.6130   45.6730   33.8110 C.3       1 SUB1        0.021
     23 C3         30.7880   46.2130   34.5970 C.ar      1 SUB1       -0.039
     24 C4         30.7100   46.3790   35.9770 C.ar      1 SUB1       -0.060
     25 C5         31.8030   46.8660   36.6870 C.ar      1 SUB1       -0.069
     26 C6         32.9820   47.1770   36.0200 C.ar      1 SUB1       -0.069
     27 C7         33.0620   47.0070   34.6470 C.ar      1 SUB1       -0.069
     28 C8         31.9700   46.5270   33.9360 C.ar      1 SUB1       -0.060
     29 H31        29.1324   41.4909   29.9577 H         1 SUB1        0.067
     30 H41        26.7371   42.8637   29.7351 H         1 SUB1        0.046
     31 H42        27.1830   43.1456   31.4522 H         1 SUB1        0.046
     32 H61        25.0671   41.5766   31.7381 H         1 SUB1        0.056
     33 H71        24.4944   39.2346   32.2847 H         1 SUB1        0.060
     34 H81        26.0840   37.4132   31.7542 H         1 SUB1        0.056
     35 H91        28.2462   37.9382   30.6755 H         1 SUB1        0.060
     36 H101       28.8228   40.2832   30.1391 H         1 SUB1        0.056
     37 H111       30.0847   43.5720   28.5290 H         1 SUB1        0.105
     38 H121       28.2300   44.2645   32.0888 H         1 SUB1        0.189
     39 H131       31.0761   44.6017   32.6703 H         1 SUB1        0.082
     40 H161       28.3800   42.8677   34.2868 H         1 SUB1        0.190
     41 H171       30.4260   41.4220   35.8821 H         1 SUB1        0.077
     42 H211       29.1432   41.8531   37.9688 H         1 SUB1        0.029
     43 H212       28.0289   42.9270   37.0569 H         1 SUB1        0.029
     44 H213       29.7575   43.3779   37.2449 H         1 SUB1        0.029
     45 H221       28.7676   45.4597   34.4817 H         1 SUB1        0.047
     46 H222       29.2991   46.3961   33.0438 H         1 SUB1        0.047
     47 H241       29.7945   46.1279   36.5003 H         1 SUB1        0.056
     48 H251       31.7350   47.0028   37.7602 H         1 SUB1        0.060
     49 H261       33.8364   47.5514   36.5721 H         1 SUB1        0.056
     50 H271       33.9809   47.2498   34.1258 H         1 SUB1        0.060
     51 H281       32.0395   46.3967   32.8621 H         1 SUB1        0.056
@<TRIPOS>BOND
     1    1    2 2  
     2    2    3 1  
     3    2   12 am 
     4    3    4 1  
     5    3   11 1  
     6    4    5 1  
     7    5    6 ar 
     8    5   10 ar 
     9    6    7 ar 
    10    7    8 ar 
    11    8    9 ar 
    12    9   10 ar 
    13   12   13 1  
    14   13   14 1  
    15   13   22 1  
    16   14   15 2  
    17   14   16 am 
    18   16   17 1  
    19   17   18 1  
    20   17   21 1  
    21   18   19 2  
    22   18   20 2  
    23   22   23 1  
    24   23   24 ar 
    25   23   28 ar 
    26   24   25 ar 
    27   25   26 ar 
    28   26   27 ar 
    29   27   28 ar 
    30    3   29 1  
    31    4   30 1  
    32    4   31 1  
    33    6   32 1  
    34    7   33 1  
    35    8   34 1  
    36    9   35 1  
    37   10   36 1  
    38   11   37 1  
    39   12   38 1  
    40   13   39 1  
    41   16   40 1  
    42   17   41 1  
    43   21   42 1  
    44   21   43 1  
    45   21   44 1  
    46   22   45 1  
    47   22   46 1  
    48   24   47 1  
    49   25   48 1  
    50   26   49 1  
    51   27   50 1  
    52   28   51 1  
@<TRIPOS>SUBSTRUCTURE
     1 SUB1        1 GROUP

