### 
### Created by X-TOOL on Tue Oct 25 01:26:08 2005
### 

@<TRIPOS>MOLECULE
10gs_ligand
   59    60     1     0     0
SMALL
GAST_HUCK


@<TRIPOS>ATOM
      1 N          15.0880   10.7980   23.5470 N.4       1 SUB1        0.238
      2 CA         15.0100    9.9870   24.7920 C.3       1 SUB1        0.017
      3 C          16.1150    8.9240   24.8300 C.2       1 SUB1        0.076
      4 O          16.5200    8.5150   25.9400 O.co2     1 SUB1       -0.561
      5 CB         13.6350    9.3270   24.9080 C.3       1 SUB1        0.018
      6 CG         13.3940    8.7080   26.2710 C.3       1 SUB1        0.045
      7 CD         12.0450    8.0460   26.4020 C.2       1 SUB1        0.179
      8 OE1        11.2930    7.9360   25.4350 O.2       1 SUB1       -0.397
      9 OXT        16.5780    8.5240   23.7440 O.co2     1 SUB1       -0.561
     10 N          11.7260    7.6420   27.6280 N.am      1 SUB1       -0.265
     11 CA         10.4720    6.9670   27.9340 C.3       1 SUB1        0.140
     12 CB         10.7260    5.4840   28.2060 C.3       1 SUB1        0.036
     13 SG         11.2910    4.5240   26.8100 S.3       1 SUB1       -0.142
     14 CD          9.7290    3.8040   26.2620 C.3       1 SUB1        0.028
     15 CE          8.9300    3.1710   27.3700 C.ar      1 SUB1       -0.033
     16 CZ1         7.6400    3.6140   27.6500 C.ar      1 SUB1       -0.060
     17 CZ2         9.4640    2.1350   28.1330 C.ar      1 SUB1       -0.060
     18 CT1         6.8930    3.0370   28.6730 C.ar      1 SUB1       -0.068
     19 CT2         8.7230    1.5500   29.1610 C.ar      1 SUB1       -0.068
     20 CH          7.4370    2.0010   29.4300 C.ar      1 SUB1       -0.069
     21 C           9.8340    7.5500   29.1800 C.2       1 SUB1        0.208
     22 O          10.5220    8.0230   30.0840 O.2       1 SUB1       -0.394
     23 N           8.5120    7.4680   29.2290 N.am      1 SUB1       -0.257
     24 CA          7.7400    7.9330   30.3660 C.3       1 SUB1        0.114
     25 CB          6.5550    7.0620   30.6330 C.ar      1 SUB1       -0.004
     26 CG1         5.3300    7.3150   30.0270 C.ar      1 SUB1       -0.055
     27 CG2         6.6830    5.9410   31.4410 C.ar      1 SUB1       -0.055
     28 CD1         4.2500    6.4590   30.2200 C.ar      1 SUB1       -0.068
     29 CD2         5.6110    5.0810   31.6400 C.ar      1 SUB1       -0.068
     30 CE          4.3920    5.3390   31.0270 C.ar      1 SUB1       -0.068
     31 C           7.4520    9.4330   30.3540 C.2       1 SUB1        0.064
     32 O           7.1160    9.9570   31.4330 O.co2     1 SUB1       -0.563
     33 OXT         7.5690   10.0680   29.2840 O.co2     1 SUB1       -0.563
     34 H11        15.8625   10.4868   22.9820 H         1 SUB1        0.202
     35 H21        15.1593   10.6518   25.6556 H         1 SUB1        0.107
     36 H51        12.8577   10.0861   24.7362 H         1 SUB1        0.038
     37 H52        13.5463    8.5476   24.1369 H         1 SUB1        0.038
     38 H61        14.1638    7.9441   26.4548 H         1 SUB1        0.051
     39 H62        13.4828    9.4926   27.0368 H         1 SUB1        0.051
     40 H101       12.3741    7.8085   28.3711 H         1 SUB1        0.188
     41 H111        9.7770    7.0843   27.0895 H         1 SUB1        0.081
     42 H121       11.4937    5.4041   28.9897 H         1 SUB1        0.043
     43 H122        9.7858    5.0318   28.5545 H         1 SUB1        0.043
     44 H12        15.2311   11.7765   23.7965 H         1 SUB1        0.202
     45 H141        9.1123    4.5968   25.8136 H         1 SUB1        0.054
     46 H142        9.9415    3.0259   25.5141 H         1 SUB1        0.054
     47 H161        7.2118    4.4189   27.0636 H         1 SUB1        0.056
     48 H171       10.4667    1.7790   27.9259 H         1 SUB1        0.056
     49 H181        5.8903    3.3927   28.8804 H         1 SUB1        0.060
     50 H191        9.1502    0.7453   29.7483 H         1 SUB1        0.060
     51 H201        6.8580    1.5482   30.2268 H         1 SUB1        0.056
     52 H231        8.0270    7.0694   28.4506 H         1 SUB1        0.193
     53 H241        8.3971    7.8012   31.2382 H         1 SUB1        0.095
     54 H261        5.2146    8.1893   29.3967 H         1 SUB1        0.056
     55 H271        7.6317    5.7341   31.9229 H         1 SUB1        0.056
     56 H281        3.2999    6.6666   29.7411 H         1 SUB1        0.060
     57 H291        5.7257    4.2088   32.2735 H         1 SUB1        0.060
     58 H301        3.5543    4.6679   31.1783 H         1 SUB1        0.056
     59 H13        14.2370   10.6961   23.0165 H         1 SUB1        0.202
@<TRIPOS>BOND
     1    2    1 1  
     2    2    5 1  
     3    2    3 1  
     4    3    4 2  
     5    3    9 2  
     6    5    6 1  
     7    6    7 1  
     8    7    8 2  
     9    7   10 am 
    10   10   11 1  
    11   11   12 1  
    12   11   21 1  
    13   12   13 1  
    14   13   14 1  
    15   14   15 1  
    16   15   16 ar 
    17   15   17 ar 
    18   16   18 ar 
    19   17   19 ar 
    20   18   20 ar 
    21   19   20 ar 
    22   21   22 2  
    23   21   23 am 
    24   23   24 1  
    25   24   25 1  
    26   24   31 1  
    27   25   26 ar 
    28   25   27 ar 
    29   26   28 ar 
    30   27   29 ar 
    31   28   30 ar 
    32   29   30 ar 
    33   31   32 2  
    34   31   33 2  
    35    1   44 1  
    36    1   34 1  
    37    2   35 1  
    38    5   36 1  
    39    5   37 1  
    40    6   38 1  
    41    6   39 1  
    42   10   40 1  
    43   11   41 1  
    44   12   42 1  
    45   12   43 1  
    46   14   45 1  
    47   14   46 1  
    48   16   47 1  
    49   17   48 1  
    50   18   49 1  
    51   19   50 1  
    52   20   51 1  
    53   23   52 1  
    54   24   53 1  
    55   26   54 1  
    56   27   55 1  
    57   28   56 1  
    58   29   57 1  
    59   30   58 1  
    60    1   59 1  
@<TRIPOS>SUBSTRUCTURE
     1 SUB1        1 GROUP

