### 
### Created by X-TOOL on Mon Oct 24 22:55:55 2005
### 

@<TRIPOS>MOLECULE
1hpv_ligand
   70    72     1     0     0
SMALL
GAST_HUCK


@<TRIPOS>ATOM
      1 H361       10.9998   14.0280    1.9152 H         1 SUB1        0.059
      2 H362       12.1741   14.9733    2.8920 H         1 SUB1        0.059
      3 H371        8.1592   15.8212    2.8796 H         1 SUB1        0.032
      4 H372        9.1510   17.0920    3.6723 H         1 SUB1        0.032
      5 H391        9.5849   14.2069    3.7564 H         1 SUB1        0.067
      6 H401       10.2665   15.9423    8.6044 H         1 SUB1        0.060
      7 H411        9.6591   18.3611    7.6956 H         1 SUB1        0.063
      8 H421       12.4240   16.2851    9.7519 H         1 SUB1        0.045
      9 H422       13.1327   17.0226    8.2752 H         1 SUB1        0.045
     10 H441       14.0601   15.7300    6.5583 H         1 SUB1        0.056
     11 H451       11.7092   13.7488    9.6735 H         1 SUB1        0.056
     12 H461       14.4784   13.5344    5.4205 H         1 SUB1        0.060
     13 H471       12.1810   11.5219    8.5504 H         1 SUB1        0.060
     14 H481       13.5616   11.4023    6.4103 H         1 SUB1        0.056
     15 H491        9.3753   19.4635    9.8951 H         1 SUB1        0.050
     16 H492       10.4505   18.2542   10.6750 H         1 SUB1        0.050
     17 H501        7.7425   18.2736    8.3058 H         1 SUB1        0.048
     18 H502        7.0811   16.6913    8.8404 H         1 SUB1        0.048
     19 H511        6.4229   18.3171   10.8605 H         1 SUB1        0.031
     20 H531       10.9929   16.1005   13.0942 H         1 SUB1        0.060
     21 H541       11.0177   16.6672   15.5556 H         1 SUB1        0.052
     22 H561        6.7234   17.2271   15.4397 H         1 SUB1        0.052
     23 H571        6.6981   16.6334   13.0179 H         1 SUB1        0.060
     24 H581        5.2442   20.3384   10.0993 H         1 SUB1        0.023
     25 H582        6.1255   20.1825    8.5419 H         1 SUB1        0.023
     26 H583        7.0397   20.3826   10.0752 H         1 SUB1        0.023
     27 H591        4.9663   16.6130    9.8672 H         1 SUB1        0.023
     28 H592        4.3529   17.8822    8.7538 H         1 SUB1        0.023
     29 H593        4.1721   18.0816   10.5298 H         1 SUB1        0.023
     30 H601        9.1105   16.2324    0.8300 H         1 SUB1        0.056
     31 H602        9.7991   17.7225    1.5595 H         1 SUB1        0.056
     32 H611       11.6176   16.9955    6.1965 H         1 SUB1        0.187
     33 H631        9.7193   17.3634   17.4328 H         1 SUB1        0.172
     34 H632        7.9410   17.4920   17.3711 H         1 SUB1        0.172
     35 H661       11.9173   18.9376    7.6545 H         1 SUB1        0.210
     36 C1         11.1690   14.9770    2.4450 C.3       1 SUB1        0.078
     37 C2          9.1760   16.2240    2.9970 C.3       1 SUB1        0.003
     38 C3         10.1490   15.7020    5.9990 C.2       1 SUB1        0.320
     39 C4         10.1130   15.1490    3.5480 C.3       1 SUB1        0.113
     40 C5         10.9600   16.6620    8.1450 C.3       1 SUB1        0.081
     41 C6         10.3870   18.1190    8.4840 C.3       1 SUB1        0.097
     42 C7         12.4160   16.2780    8.6520 C.3       1 SUB1        0.006
     43 C8         12.8310   14.9140    8.1700 C.ar      1 SUB1       -0.041
     44 C9         13.6360   14.8250    6.9780 C.ar      1 SUB1       -0.060
     45 C10        12.2990   13.7060    8.7650 C.ar      1 SUB1       -0.060
     46 C11        13.8910   13.5660    6.3310 C.ar      1 SUB1       -0.069
     47 C12        12.5740   12.4340    8.1160 C.ar      1 SUB1       -0.069
     48 C13        13.3710   12.3570    6.8870 C.ar      1 SUB1       -0.069
     49 C14         9.6950   18.4110    9.8910 C.3       1 SUB1        0.058
     50 C15         7.3810   17.6970    9.1700 C.3       1 SUB1        0.032
     51 C16         6.1860   18.4060    9.7900 C.3       1 SUB1       -0.030
     52 C17         8.8320   16.3810   12.8860 C.ar      1 SUB1        0.095
     53 C18        10.0730   16.3630   13.6040 C.ar      1 SUB1       -0.047
     54 C19        10.0920   16.6920   14.9920 C.ar      1 SUB1       -0.043
     55 C20         8.8650   17.0540   15.6200 C.ar      1 SUB1        0.035
     56 C21         7.6520   17.0060   14.9260 C.ar      1 SUB1       -0.043
     57 C22         7.6390   16.6690   13.5550 C.ar      1 SUB1       -0.047
     58 C23         6.1460   19.9370    9.6140 C.3       1 SUB1       -0.061
     59 C24         4.8220   17.6950    9.7310 C.3       1 SUB1       -0.061
     60 C25         9.7510   16.6260    1.6330 C.3       1 SUB1        0.051
     61 N1         10.9400   16.4720    6.7130 N.am      1 SUB1       -0.255
     62 N2          8.5160   17.5800   10.2280 N.am      1 SUB1       -0.233
     63 N3          8.8400   17.3220   16.8980 N.pl3     1 SUB1       -0.337
     64 O1         10.7260   15.6620    4.7310 O.3       1 SUB1       -0.258
     65 O2          9.0810   15.3130    6.2870 O.2       1 SUB1       -0.377
     66 O3         11.4320   19.0300    8.4660 O.3       1 SUB1       -0.388
     67 O4         10.0510   15.5110   10.8470 O.2       1 SUB1       -0.152
     68 O5          7.7070   15.1600   11.0710 O.2       1 SUB1       -0.152
     69 O6         11.0530   16.0820    1.5150 O.3       1 SUB1       -0.377
     70 S1          8.7650   16.1120   11.2000 S.o2      1 SUB1        0.065
@<TRIPOS>BOND
     1   36    1 1  
     2   36    2 1  
     3   37    3 1  
     4   37    4 1  
     5   39    5 1  
     6   40    6 1  
     7   41    7 1  
     8   42    8 1  
     9   42    9 1  
    10   44   10 1  
    11   45   11 1  
    12   46   12 1  
    13   47   13 1  
    14   48   14 1  
    15   49   15 1  
    16   49   16 1  
    17   50   17 1  
    18   50   18 1  
    19   51   19 1  
    20   53   20 1  
    21   54   21 1  
    22   56   22 1  
    23   57   23 1  
    24   58   24 1  
    25   58   25 1  
    26   58   26 1  
    27   59   27 1  
    28   59   28 1  
    29   59   29 1  
    30   60   30 1  
    31   60   31 1  
    32   61   32 1  
    33   63   33 1  
    34   63   34 1  
    35   66   35 1  
    36   36   39 1  
    37   69   36 1  
    38   39   64 1  
    39   40   41 1  
    40   40   42 1  
    41   61   40 1  
    42   41   49 1  
    43   42   43 1  
    44   43   44 ar 
    45   43   45 ar 
    46   44   46 ar 
    47   45   47 ar 
    48   46   48 ar 
    49   47   48 ar 
    50   49   62 1  
    51   50   51 1  
    52   62   50 1  
    53   51   58 1  
    54   51   59 1  
    55   52   53 ar 
    56   52   57 ar 
    57   53   54 ar 
    58   54   55 ar 
    59   56   55 ar 
    60   57   56 ar 
    61   70   68 2  
    62   70   67 2  
    63   62   70 1  
    64   70   52 1  
    65   60   69 1  
    66   41   66 1  
    67   38   65 2  
    68   64   38 1  
    69   55   63 1  
    70   38   61 am 
    71   60   37 1  
    72   39   37 1  
@<TRIPOS>SUBSTRUCTURE
     1 SUB1        1 GROUP

