1hpv_ligand
  -I-interpret- 

 70 72  0  0  0  0  0  0  0  0999 V2000
   10.9998   14.0280    1.9152 H   0  0  0  0  0
   12.1741   14.9733    2.8920 H   0  0  0  0  0
    8.1592   15.8212    2.8796 H   0  0  0  0  0
    9.1510   17.0920    3.6723 H   0  0  0  0  0
    9.5849   14.2069    3.7564 H   0  0  0  0  0
   10.2665   15.9423    8.6044 H   0  0  0  0  0
    9.6591   18.3611    7.6956 H   0  0  0  0  0
   12.4240   16.2851    9.7519 H   0  0  0  0  0
   13.1327   17.0226    8.2752 H   0  0  0  0  0
   14.0601   15.7300    6.5583 H   0  0  0  0  0
   11.7092   13.7488    9.6735 H   0  0  0  0  0
   14.4784   13.5344    5.4205 H   0  0  0  0  0
   12.1810   11.5219    8.5504 H   0  0  0  0  0
   13.5616   11.4023    6.4103 H   0  0  0  0  0
    9.3753   19.4635    9.8951 H   0  0  0  0  0
   10.4505   18.2542   10.6750 H   0  0  0  0  0
    7.7425   18.2736    8.3058 H   0  0  0  0  0
    7.0811   16.6913    8.8404 H   0  0  0  0  0
    6.4229   18.3171   10.8605 H   0  0  0  0  0
   10.9929   16.1005   13.0942 H   0  0  0  0  0
   11.0177   16.6672   15.5556 H   0  0  0  0  0
    6.7234   17.2271   15.4397 H   0  0  0  0  0
    6.6981   16.6334   13.0179 H   0  0  0  0  0
    5.2442   20.3384   10.0993 H   0  0  0  0  0
    6.1255   20.1825    8.5419 H   0  0  0  0  0
    7.0397   20.3826   10.0752 H   0  0  0  0  0
    4.9663   16.6130    9.8672 H   0  0  0  0  0
    4.3529   17.8822    8.7538 H   0  0  0  0  0
    4.1721   18.0816   10.5298 H   0  0  0  0  0
    9.1105   16.2324    0.8300 H   0  0  0  0  0
    9.7991   17.7225    1.5595 H   0  0  0  0  0
   11.6176   16.9955    6.1965 H   0  0  0  0  0
    9.7193   17.3634   17.4328 H   0  0  0  0  0
    7.9410   17.4920   17.3711 H   0  0  0  0  0
   11.9173   18.9376    7.6545 H   0  0  0  0  0
   11.1690   14.9770    2.4450 C   0  0  0  0  0
    9.1760   16.2240    2.9970 C   0  0  0  0  0
   10.1490   15.7020    5.9990 C   0  0  0  0  0
   10.1130   15.1490    3.5480 C   0  0  0  0  0
   10.9600   16.6620    8.1450 C   0  0  0  0  0
   10.3870   18.1190    8.4840 C   0  0  0  0  0
   12.4160   16.2780    8.6520 C   0  0  0  0  0
   12.8310   14.9140    8.1700 C   0  0  0  0  0
   13.6360   14.8250    6.9780 C   0  0  0  0  0
   12.2990   13.7060    8.7650 C   0  0  0  0  0
   13.8910   13.5660    6.3310 C   0  0  0  0  0
   12.5740   12.4340    8.1160 C   0  0  0  0  0
   13.3710   12.3570    6.8870 C   0  0  0  0  0
    9.6950   18.4110    9.8910 C   0  0  0  0  0
    7.3810   17.6970    9.1700 C   0  0  0  0  0
    6.1860   18.4060    9.7900 C   0  0  0  0  0
    8.8320   16.3810   12.8860 C   0  0  0  0  0
   10.0730   16.3630   13.6040 C   0  0  0  0  0
   10.0920   16.6920   14.9920 C   0  0  0  0  0
    8.8650   17.0540   15.6200 C   0  0  0  0  0
    7.6520   17.0060   14.9260 C   0  0  0  0  0
    7.6390   16.6690   13.5550 C   0  0  0  0  0
    6.1460   19.9370    9.6140 C   0  0  0  0  0
    4.8220   17.6950    9.7310 C   0  0  0  0  0
    9.7510   16.6260    1.6330 C   0  0  0  0  0
   10.9400   16.4720    6.7130 N   0  0  0  0  0
    8.5160   17.5800   10.2280 N   0  0  0  0  0
    8.8400   17.3220   16.8980 N   0  0  0  0  0
   10.7260   15.6620    4.7310 O   0  0  0  0  0
    9.0810   15.3130    6.2870 O   0  0  0  0  0
   11.4320   19.0300    8.4660 O   0  0  0  0  0
   10.0510   15.5110   10.8470 O   0  0  0  0  0
    7.7070   15.1600   11.0710 O   0  0  0  0  0
   11.0530   16.0820    1.5150 O   0  0  0  0  0
    8.7650   16.1120   11.2000 S   0  0  0  0  0
 36  1  1  0  0  0
 36  2  1  0  0  0
 37  3  1  0  0  0
 37  4  1  0  0  0
 39  5  1  0  0  0
 40  6  1  0  0  0
 41  7  1  0  0  0
 42  8  1  0  0  0
 42  9  1  0  0  0
 44 10  1  0  0  0
 45 11  1  0  0  0
 46 12  1  0  0  0
 47 13  1  0  0  0
 48 14  1  0  0  0
 49 15  1  0  0  0
 49 16  1  0  0  0
 50 17  1  0  0  0
 50 18  1  0  0  0
 51 19  1  0  0  0
 53 20  1  0  0  0
 54 21  1  0  0  0
 56 22  1  0  0  0
 57 23  1  0  0  0
 58 24  1  0  0  0
 58 25  1  0  0  0
 58 26  1  0  0  0
 59 27  1  0  0  0
 59 28  1  0  0  0
 59 29  1  0  0  0
 60 30  1  0  0  0
 60 31  1  0  0  0
 61 32  1  0  0  0
 63 33  1  0  0  0
 63 34  1  0  0  0
 66 35  1  0  0  0
 36 39  1  0  0  0
 69 36  1  0  0  0
 39 64  1  0  0  0
 40 41  1  0  0  0
 40 42  1  0  0  0
 61 40  1  0  0  0
 41 49  1  0  0  0
 42 43  1  0  0  0
 43 44  4  0  0  0
 43 45  4  0  0  0
 44 46  4  0  0  0
 45 47  4  0  0  0
 46 48  4  0  0  0
 47 48  4  0  0  0
 49 62  1  0  0  0
 50 51  1  0  0  0
 62 50  1  0  0  0
 51 58  1  0  0  0
 51 59  1  0  0  0
 52 53  4  0  0  0
 52 57  4  0  0  0
 53 54  4  0  0  0
 54 55  4  0  0  0
 56 55  4  0  0  0
 57 56  4  0  0  0
 70 68  2  0  0  0
 70 67  2  0  0  0
 62 70  1  0  0  0
 70 52  1  0  0  0
 60 69  1  0  0  0
 41 66  1  0  0  0
 38 65  2  0  0  0
 64 38  1  0  0  0
 55 63  1  0  0  0
 38 61  1  0  0  0
 60 37  1  0  0  0
 39 37  1  0  0  0
M  END
$$$$
