1ro7_ligand
  -I-interpret- 

 70 72  0  0  0  0  0  0  0  0999 V2000
   22.0770   -5.5180   11.4770 C   0  0  0  0  0
   21.9970   -4.0220   11.1880 C   0  0  0  0  0
   20.7490   -3.7580   13.4930 C   0  0  0  0  0
   21.4410   -4.9830   13.8350 O   0  0  0  0  0
   22.4110   -5.6590   12.9880 C   0  0  0  0  0
   20.8810   -3.2790   12.0160 C   0  0  0  0  0
   21.6900   -3.9200    9.7810 O   0  0  0  0  0
   23.0680   -6.2430   10.7660 N   0  0  0  0  0
   22.3910   -7.0410   13.6690 C   0  0  0  0  0
   22.6710   -7.1910   15.1290 C   0  0  0  0  0
   22.8830   -8.6310   15.6290 C   0  0  0  0  0
   22.9140   -8.6710   17.0250 O   0  0  0  0  0
   23.8720   -6.5210   15.5430 O   0  0  0  0  0
   21.0900   -7.6480   13.3690 O   0  0  0  0  0
   19.7750   -3.1080   14.3550 C   0  0  0  0  0
   19.3490   -1.8470   14.1000 O   0  5  0  0  0
   19.3480   -3.7510   15.2650 O   0  0  0  0  0
   21.8640   -2.8540   13.9650 O   0  0  0  0  0
   24.4260   -2.9000   13.2690 O   0  5  0  0  0
   24.5280    2.3840   13.5730 N   0  0  0  0  0
   24.4510    3.4810   12.6140 C   0  0  0  0  0
   25.5060    3.5440   11.5960 N   0  0  0  0  0
   26.5470    2.5950   11.5370 C   0  0  0  0  0
   26.6330    1.4460   12.5320 C   0  0  0  0  0
   25.6160    1.4120   13.4910 C   0  0  0  0  0
   21.7910    0.5380   14.6540 C   0  0  0  0  0
   22.0020    1.9640   14.2310 C   0  0  0  0  0
   23.4190    2.3110   14.6620 C   0  0  0  0  0
   23.7820    1.3490   15.6830 O   0  0  0  0  0
   22.6850    0.4400   15.9070 C   0  0  0  0  0
   23.4590   -2.6900   14.3770 P   0  0  0  0  0
   24.0280   -1.3670   15.0100 O   0  0  0  0  0
   23.2440   -0.8980   16.1270 C   0  0  0  0  0
   20.4400    0.2870   15.0540 O   0  0  0  0  0
   21.1320    2.8850   14.9200 O   0  0  0  0  0
   27.4470    2.7140   10.6070 N   0  0  0  0  0
   23.5180    4.3690   12.6300 O   0  0  0  0  0
   23.8200   -3.6330   15.3510 O   0  0  0  0  0
   23.0150   -7.5000   10.2800 C   0  0  0  0  0
   22.0080   -8.2010   10.4260 O   0  0  0  0  0
   24.2340   -8.0200    9.5510 C   0  0  0  0  0
   19.6540   -3.7120   11.5910 F   0  0  0  0  0
   21.0967   -5.9669   11.2589 H   0  0  0  0  0
   22.9687   -3.5537   11.4037 H   0  0  0  0  0
   23.4093   -5.2168   13.1216 H   0  0  0  0  0
   21.0149   -2.1899   11.9391 H   0  0  0  0  0
   22.3609   -4.3670    9.2784 H   0  0  0  0  0
   23.9248   -5.7540   10.6025 H   0  0  0  0  0
   23.1689   -7.6317   13.1630 H   0  0  0  0  0
   21.8123   -6.7571   15.6622 H   0  0  0  0  0
   23.8368   -9.0127   15.2359 H   0  0  0  0  0
   22.0584   -9.2633   15.2682 H   0  0  0  0  0
   23.6271   -8.1283   17.3405 H   0  0  0  0  0
   23.8339   -5.6105   15.2746 H   0  0  0  0  0
   20.9053   -7.5562   12.4417 H   0  0  0  0  0
   27.4293    0.7039   12.4992 H   0  0  0  0  0
   25.6361    0.6080   14.2253 H   0  0  0  0  0
   22.0942   -0.1666   13.8656 H   0  0  0  0  0
   21.8732    2.0627   13.1430 H   0  0  0  0  0
   23.3767    3.3093   15.1220 H   0  0  0  0  0
   22.1078    0.7394   16.7942 H   0  0  0  0  0
   22.4155   -1.6018   16.2950 H   0  0  0  0  0
   23.8865   -0.8682   17.0194 H   0  0  0  0  0
   20.3795   -0.5817   15.4337 H   0  0  0  0  0
   20.2301    2.7061   14.6809 H   0  0  0  0  0
   28.2166    2.0323   10.5448 H   0  0  0  0  0
   27.3907    3.4901    9.9321 H   0  0  0  0  0
   24.0476   -9.0502    9.2135 H   0  0  0  0  0
   25.1000   -8.0074   10.2292 H   0  0  0  0  0
   24.4409   -7.3807    8.6801 H   0  0  0  0  0
  2  1  1  0  0  0
  5  1  1  0  0  0
  1  8  1  0  0  0
  6  2  1  0  0  0
  2  7  1  0  0  0
  3  4  1  0  0  0
  3  6  1  0  0  0
  3 15  1  0  0  0
 18  3  1  0  0  0
  4  5  1  0  0  0
  5  9  1  0  0  0
  6 42  1  0  0  0
  8 39  1  0  0  0
  9 10  1  0  0  0
  9 14  1  0  0  0
 10 11  1  0  0  0
 10 13  1  0  0  0
 11 12  1  0  0  0
 15 16  1  0  0  0
 15 17  2  0  0  0
 31 18  1  0  0  0
 31 19  1  0  0  0
 20 21  1  0  0  0
 20 25  1  0  0  0
 28 20  1  0  0  0
 21 22  1  0  0  0
 21 37  2  0  0  0
 22 23  2  0  0  0
 24 23  1  0  0  0
 23 36  1  0  0  0
 25 24  2  0  0  0
 26 27  1  0  0  0
 30 26  1  0  0  0
 26 34  1  0  0  0
 28 27  1  0  0  0
 27 35  1  0  0  0
 29 28  1  0  0  0
 30 29  1  0  0  0
 33 30  1  0  0  0
 32 31  1  0  0  0
 31 38  2  0  0  0
 32 33  1  0  0  0
 39 40  2  0  0  0
 39 41  1  0  0  0
  1 43  1  0  0  0
  2 44  1  0  0  0
  5 45  1  0  0  0
  6 46  1  0  0  0
  7 47  1  0  0  0
  8 48  1  0  0  0
  9 49  1  0  0  0
 10 50  1  0  0  0
 11 51  1  0  0  0
 11 52  1  0  0  0
 12 53  1  0  0  0
 13 54  1  0  0  0
 14 55  1  0  0  0
 24 56  1  0  0  0
 25 57  1  0  0  0
 26 58  1  0  0  0
 27 59  1  0  0  0
 28 60  1  0  0  0
 30 61  1  0  0  0
 33 62  1  0  0  0
 33 63  1  0  0  0
 34 64  1  0  0  0
 35 65  1  0  0  0
 36 66  1  0  0  0
 36 67  1  0  0  0
 41 68  1  0  0  0
 41 69  1  0  0  0
 41 70  1  0  0  0
M  END
$$$$
