### 
### Created by X-TOOL on Mon Oct 24 23:06:46 2005
### 

@<TRIPOS>MOLECULE
1b5i_ligand
   61    60     1     0     0
SMALL
GAST_HUCK


@<TRIPOS>ATOM
      1 N           6.8880   16.5850   15.2370 N.4       1 SUB1        0.238
      2 CA          6.4120   17.8710   14.6290 C.3       1 SUB1        0.065
      3 C           5.2240   18.4200   15.4180 C.2       1 SUB1        0.227
      4 O           4.4480   17.6480   15.9690 O.2       1 SUB1       -0.391
      5 CB          6.0570   17.8000   13.1500 C.3       1 SUB1        0.008
      6 CG          5.1710   16.6660   12.6790 C.3       1 SUB1       -0.041
      7 CD          5.1470   16.5360   11.1470 C.3       1 SUB1       -0.012
      8 CE          6.4820   16.0900   10.5660 C.3       1 SUB1       -0.035
      9 NZ          6.8160   14.6790   10.9490 N.4       1 SUB1        0.219
     10 N           5.1150   19.7310   15.5020 N.am      1 SUB1       -0.259
     11 CA          3.9960   20.3660   16.2000 C.3       1 SUB1        0.148
     12 C           2.7140   20.3480   15.3810 C.2       1 SUB1        0.207
     13 O           2.6990   20.6480   14.1900 O.2       1 SUB1       -0.394
     14 CB          4.3040   21.8440   16.5010 C.3       1 SUB1        0.077
     15 CG          4.9860   21.8890   17.8790 C.2       1 SUB1        0.178
     16 OD1         4.4780   21.2970   18.8270 O.2       1 SUB1       -0.397
     17 ND2         6.1080   22.5410   18.0450 N.am      1 SUB1       -0.301
     18 N           1.5940   19.9770   16.0020 N.am      1 SUB1       -0.268
     19 CA          0.3310   19.9140   15.3150 C.3       1 SUB1        0.081
     20 C          -0.7100   20.7810   16.0510 C.2       1 SUB1        0.053
     21 O          -1.7460   21.1160   15.4950 O.co2     1 SUB1       -0.564
     22 CB         -0.2470   18.4830   15.2680 C.3       1 SUB1       -0.018
     23 CG         -1.3900   18.4580   14.2440 C.3       1 SUB1       -0.043
     24 CD         -1.6500   17.0610   13.7100 C.3       1 SUB1       -0.012
     25 CE         -2.5540   17.1150   12.4690 C.3       1 SUB1       -0.035
     26 NZ         -3.9330   17.4300   12.9680 N.4       1 SUB1        0.219
     27 OXT        -0.5210   21.1280   17.2120 O.co2     1 SUB1       -0.564
     28 H11         6.3288   16.3693   16.0474 H         1 SUB1        0.201
     29 H21         7.2392   18.5900   14.7229 H         1 SUB1        0.110
     30 H51         7.0018   17.7290   12.5911 H         1 SUB1        0.035
     31 H52         5.5479   18.7402   12.8915 H         1 SUB1        0.035
     32 H61         4.1459   16.8483   13.0338 H         1 SUB1        0.027
     33 H62         5.5452   15.7245   13.1073 H         1 SUB1        0.027
     34 H71         4.8868   17.5142   10.7164 H         1 SUB1        0.032
     35 H72         4.3801   15.7977   10.8699 H         1 SUB1        0.032
     36 H81         7.2730   16.7566   10.9401 H         1 SUB1        0.081
     37 H82         6.4331   16.1586    9.4692 H         1 SUB1        0.081
     38 H91         6.8786   14.6091   11.9526 H         1 SUB1        0.199
     39 H92         7.6992   14.4195   10.5384 H         1 SUB1        0.199
     40 H93         6.0947   14.0600   10.6134 H         1 SUB1        0.199
     41 H101        5.8145   20.3063   15.0781 H         1 SUB1        0.189
     42 H111        3.8280   19.8273   17.1442 H         1 SUB1        0.083
     43 H141        3.3719   22.4277   16.5215 H         1 SUB1        0.055
     44 H142        4.9764   22.2539   15.7330 H         1 SUB1        0.055
     45 H171        6.5295   23.0156   17.2723 H         1 SUB1        0.181
     46 H172        6.5441   22.5647   18.9446 H         1 SUB1        0.181
     47 H181        1.6326   19.7359   16.9717 H         1 SUB1        0.190
     48 H191        0.4692   20.2853   14.2888 H         1 SUB1        0.078
     49 H221       -0.6307   18.2041   16.2604 H         1 SUB1        0.032
     50 H222        0.5383   17.7744   14.9662 H         1 SUB1        0.032
     51 H231       -1.1264   19.1156   13.4025 H         1 SUB1        0.027
     52 H232       -2.3062   18.8292   14.7264 H         1 SUB1        0.027
     53 H241       -2.1426   16.4619   14.4900 H         1 SUB1        0.032
     54 H242       -0.6918   16.5936   13.4390 H         1 SUB1        0.032
     55 H251       -2.5486   16.1446   11.9510 H         1 SUB1        0.081
     56 H252       -2.2093   17.9003   11.7802 H         1 SUB1        0.081
     57 H261       -4.2371   16.7029   13.5964 H         1 SUB1        0.199
     58 H262       -4.5681   17.4866   12.1873 H         1 SUB1        0.199
     59 H263       -3.9206   18.3121   13.4556 H         1 SUB1        0.199
     60 H12         7.8535   16.6798   15.5106 H         1 SUB1        0.201
     61 H13         6.8015   15.8417   14.5616 H         1 SUB1        0.201
@<TRIPOS>BOND
     1    2    1 1  
     2    2    5 1  
     3    3    2 1  
     4    3    4 2  
     5    5    6 1  
     6    6    7 1  
     7    7    8 1  
     8    8    9 1  
     9   11   10 1  
    10   11   14 1  
    11   12   11 1  
    12   12   13 2  
    13   14   15 1  
    14   15   17 am 
    15   15   16 2  
    16   10    3 am 
    17   18   19 1  
    18   19   22 1  
    19   19   20 1  
    20   20   21 2  
    21   20   27 2  
    22   22   23 1  
    23   23   24 1  
    24   24   25 1  
    25   25   26 1  
    26   12   18 am 
    27    1   28 1  
    28    2   29 1  
    29    5   30 1  
    30    5   31 1  
    31    6   32 1  
    32    6   33 1  
    33    7   34 1  
    34    7   35 1  
    35    8   36 1  
    36    8   37 1  
    37    9   38 1  
    38    9   39 1  
    39    9   40 1  
    40   10   41 1  
    41   11   42 1  
    42   14   43 1  
    43   14   44 1  
    44   17   45 1  
    45   17   46 1  
    46   18   47 1  
    47   19   48 1  
    48   22   49 1  
    49   22   50 1  
    50   23   51 1  
    51   23   52 1  
    52   24   53 1  
    53   24   54 1  
    54   25   55 1  
    55   25   56 1  
    56   26   57 1  
    57   26   58 1  
    58   26   59 1  
    59    1   60 1  
    60    1   61 1  
@<TRIPOS>SUBSTRUCTURE
     1 SUB1        1 GROUP

