### 
### Created by X-TOOL on Tue Oct 25 01:16:10 2005
### 

@<TRIPOS>MOLECULE
3pcf_ligand
   15    15     1     0     0
SMALL
GAST_HUCK


@<TRIPOS>ATOM
      1 C1         14.8930   12.3540   40.6670 C.ar      1 SUB1       -0.021
      2 C2         15.4850   11.3370   39.8780 C.ar      1 SUB1       -0.027
      3 C3         15.0210   10.0430   39.9610 C.ar      1 SUB1        0.164
      4 F3         15.6060    9.0630   39.2210 F         1 SUB1       -0.188
      5 C4         13.8990    9.7510   40.7520 C.ar      1 SUB1        0.130
      6 O4         13.4700    8.4410   40.7650 O.3       1 SUB1       -0.327
      7 C5         13.3060   10.7350   41.5220 C.ar      1 SUB1       -0.029
      8 C6         13.7930   12.0510   41.4670 C.ar      1 SUB1       -0.063
      9 C7         15.4750   13.7500   40.5900 C.2       1 SUB1        0.053
     10 O1         16.4050   14.0100   39.8250 O.co2     1 SUB1       -0.557
     11 O2         14.9870   14.6510   41.2430 O.co2     1 SUB1       -0.557
     12 H21        16.3032   11.5774   39.2089 H         1 SUB1        0.056
     13 H61        14.0051    7.9278   40.1710 H         1 SUB1        0.252
     14 H71        12.4684   10.4913   42.1655 H         1 SUB1        0.056
     15 H81        13.3132   12.8311   42.0468 H         1 SUB1        0.057
@<TRIPOS>BOND
     1    1    9 1  
     2    1    8 ar 
     3    1    2 ar 
     4    2    3 ar 
     5    3    5 ar 
     6    3    4 1  
     7    5    7 ar 
     8    5    6 1  
     9    7    8 ar 
    10    9   11 2  
    11    9   10 2  
    12    2   12 1  
    13    6   13 1  
    14    7   14 1  
    15    8   15 1  
@<TRIPOS>SUBSTRUCTURE
     1 SUB1        1 GROUP

