1lyb_ligand
  -I-interpret- 

110109  0  0  0  0  0  0  0  0999 V2000
   20.4534   91.5200    6.0131 H   0  0  0  0  0
   21.0141   88.6683    6.7723 H   0  0  0  0  0
   20.9921   89.6156    9.0506 H   0  0  0  0  0
   19.5130   88.6487    8.7282 H   0  0  0  0  0
   19.4377   90.4430    8.6956 H   0  0  0  0  0
   18.4940   90.3686    6.3527 H   0  0  0  0  0
   18.5350   88.5767    6.4707 H   0  0  0  0  0
   19.3434   89.4050    5.0970 H   0  0  0  0  0
   22.2237   93.1779    9.6663 H   0  0  0  0  0
   24.0024   94.2429    8.5964 H   0  0  0  0  0
   23.1542   93.9258    6.3246 H   0  0  0  0  0
   23.8149   95.5826    6.5366 H   0  0  0  0  0
   22.0383   95.3179    6.5329 H   0  0  0  0  0
   21.9260   96.4874    8.7873 H   0  0  0  0  0
   23.7080   96.7055    8.7298 H   0  0  0  0  0
   22.9496   95.8742   10.1299 H   0  0  0  0  0
   17.0784   99.4014   10.7135 H   0  0  0  0  0
   16.6573  100.1710   13.6398 H   0  0  0  0  0
   15.6595   99.0024   12.7095 H   0  0  0  0  0
   15.6818  100.7365   12.2415 H   0  0  0  0  0
   24.0001   90.2311    3.7926 H   0  0  0  0  0
   25.1700   89.7994    5.0855 H   0  0  0  0  0
   23.5032   87.5653    4.0086 H   0  0  0  0  0
   24.9627   87.4142    1.9880 H   0  0  0  0  0
   25.7319   88.9733    2.4399 H   0  0  0  0  0
   23.9929   88.9262    1.9920 H   0  0  0  0  0
   25.2991   87.1666    5.6664 H   0  0  0  0  0
   26.4952   87.9157    4.5553 H   0  0  0  0  0
   25.6798   86.3826    4.0958 H   0  0  0  0  0
   18.5095   95.4617    9.9498 H   0  0  0  0  0
   16.9689   93.9587   10.9082 H   0  0  0  0  0
   18.2890   92.9644   11.6122 H   0  0  0  0  0
   18.7868   92.2793    9.1795 H   0  0  0  0  0
   17.0437   90.5227    9.4232 H   0  0  0  0  0
   16.2064   91.5388   10.6451 H   0  0  0  0  0
   17.8441   90.8862   10.9896 H   0  0  0  0  0
   17.3191   93.8873    8.0444 H   0  0  0  0  0
   15.9045   93.2156    8.9242 H   0  0  0  0  0
   16.7997   92.1933    7.7494 H   0  0  0  0  0
   18.0621   95.5780   12.4788 H   0  0  0  0  0
   20.7927   96.5907   11.5450 H   0  0  0  0  0
   20.0467   96.9872   13.1302 H   0  0  0  0  0
   20.1722  102.5886   11.2061 H   0  0  0  0  0
   21.7057  102.0498    9.0700 H   0  0  0  0  0
   20.9828  100.4272    9.3370 H   0  0  0  0  0
   23.2694  101.7290   10.5938 H   0  0  0  0  0
   22.9994  100.6405   12.7785 H   0  0  0  0  0
   21.3246  100.1563   12.3461 H   0  0  0  0  0
   21.7369  101.8945   12.5339 H   0  0  0  0  0
   23.2058   99.6502    9.1988 H   0  0  0  0  0
   22.1378   98.8760   10.4181 H   0  0  0  0  0
   23.8250   99.3148   10.8513 H   0  0  0  0  0
   19.7819  104.0337    9.4658 H   0  0  0  0  0
   17.4649  102.2412    9.6344 H   0  0  0  0  0
   17.7032  102.8366    7.9564 H   0  0  0  0  0
   24.2380   89.5030    4.5820 C   0  0  0  0  0
   24.4390   88.1400    3.9450 C   0  0  0  0  0
   24.8070   88.3800    2.4910 C   0  0  0  0  0
   25.5560   87.3460    4.6120 C   0  0  0  0  0
   23.1110   89.5010    5.6010 C   0  0  0  0  0
   23.0250   88.5750    6.3950 O   0  0  0  0  0
   22.2600   90.5380    5.5580 N   0  0  0  0  0
   21.1750   90.8440    6.4950 C   0  0  0  0  0
   21.8540   91.5580    7.6520 C   0  0  0  0  0
   22.7770   91.0870    8.3380 O   0  0  0  0  0
   20.3940   89.5530    6.9790 C   0  0  0  0  0
   20.0610   89.5660    8.4670 C   0  0  0  0  0
   19.1010   89.4700    6.1680 C   0  0  0  0  0
   22.4640   91.2080    4.8820 H   0  0  0  0  0
   21.4680   92.8200    7.7310 N   0  0  0  0  0
   21.8940   93.7270    8.7720 C   0  0  0  0  0
   20.6120   94.4610    9.0210 C   0  0  0  0  0
   20.0380   95.1210    8.1510 O   0  0  0  0  0
   23.0360   94.6910    8.3220 C   0  0  0  0  0
   23.0090   94.8930    6.8280 C   0  0  0  0  0
   22.8950   96.0340    9.0430 C   0  0  0  0  0
   20.7820   93.1610    7.1220 H   0  0  0  0  0
   20.1640   94.2290   10.2360 N   0  0  0  0  0
   18.8970   94.7300   10.6740 C   0  0  0  0  0
   17.9720   93.5430   10.7320 C   0  0  0  0  0
   17.8000   92.5160    9.6040 C   0  0  0  0  0
   17.1820   91.2830   10.2060 C   0  0  0  0  0
   16.8960   92.9840    8.5080 C   0  0  0  0  0
   19.0580   95.4210   12.0390 C   0  0  0  0  0
   19.8530   94.5500   12.8240 O   0  0  0  0  0
   19.8420   96.7200   12.0830 C   0  0  0  0  0
   19.0400   97.8300   11.4280 C   0  0  0  0  0
   19.1230   98.0330   10.2100 O   0  0  0  0  0
   20.4350   93.3840   10.6520 H   0  0  0  0  0
   19.9865   94.9384   13.6994 H   0  0  0  0  0
   18.2580   98.5550   12.2190 N   0  0  0  0  0
   17.4480   99.6430   11.7210 C   0  0  0  0  0
   18.3100  100.8820   11.6790 C   0  0  0  0  0
   18.3520  101.6860   12.6110 O   0  0  0  0  0
   16.2830   99.9060   12.6400 C   0  0  0  0  0
   18.3130   98.4590   13.1930 H   0  0  0  0  0
   19.0660  100.9390   10.5800 N   0  0  0  0  0
   19.9820  102.0230   10.2820 C   0  0  0  0  0
   21.2870  101.3660    9.8230 C   0  0  0  0  0
   22.4660  100.9890   10.7240 C   0  0  0  0  0
   22.1070  100.9150   12.1970 C   0  0  0  0  0
   22.9420   99.6110   10.2660 C   0  0  0  0  0
   19.4300  103.0190    9.2280 C   0  0  0  0  0
   19.9530  102.5490    7.9800 O   0  0  0  0  0
   17.8990  103.0430    9.0190 C   0  0  0  0  0
   17.1810  104.3480    9.3800 C   0  0  0  0  0
   16.7940  104.5420   10.5450 O   0  5  0  0  0
   16.9310  105.1430    8.4590 O   0  0  0  0  0
   18.9480  100.2250    9.9260 H   0  0  0  0  0
   19.6516  103.1204    7.2735 H   0  0  0  0  0
 63  1  1  0  0  0
 66  2  1  0  0  0
 67  3  1  0  0  0
 67  4  1  0  0  0
 67  5  1  0  0  0
 68  6  1  0  0  0
 68  7  1  0  0  0
 68  8  1  0  0  0
 71  9  1  0  0  0
 74 10  1  0  0  0
 75 11  1  0  0  0
 75 12  1  0  0  0
 75 13  1  0  0  0
 76 14  1  0  0  0
 76 15  1  0  0  0
 76 16  1  0  0  0
 92 17  1  0  0  0
 95 18  1  0  0  0
 95 19  1  0  0  0
 95 20  1  0  0  0
 56 21  1  0  0  0
 56 22  1  0  0  0
 57 23  1  0  0  0
 58 24  1  0  0  0
 58 25  1  0  0  0
 58 26  1  0  0  0
 59 27  1  0  0  0
 59 28  1  0  0  0
 59 29  1  0  0  0
 79 30  1  0  0  0
 80 31  1  0  0  0
 80 32  1  0  0  0
 81 33  1  0  0  0
 82 34  1  0  0  0
 82 35  1  0  0  0
 82 36  1  0  0  0
 83 37  1  0  0  0
 83 38  1  0  0  0
 83 39  1  0  0  0
 84 40  1  0  0  0
 86 41  1  0  0  0
 86 42  1  0  0  0
 98 43  1  0  0  0
 99 44  1  0  0  0
 99 45  1  0  0  0
100 46  1  0  0  0
101 47  1  0  0  0
101 48  1  0  0  0
101 49  1  0  0  0
102 50  1  0  0  0
102 51  1  0  0  0
102 52  1  0  0  0
103 53  1  0  0  0
105 54  1  0  0  0
105 55  1  0  0  0
 63 62  1  0  0  0
 63 66  1  0  0  0
 64 63  1  0  0  0
 64 65  2  0  0  0
 66 68  1  0  0  0
 66 67  1  0  0  0
 62 69  1  0  0  0
 71 70  1  0  0  0
 71 74  1  0  0  0
 72 71  1  0  0  0
 72 73  2  0  0  0
 74 76  1  0  0  0
 74 75  1  0  0  0
 70 77  1  0  0  0
 70 64  1  0  0  0
 92 91  1  0  0  0
 92 95  1  0  0  0
 93 92  1  0  0  0
 93 94  2  0  0  0
 91 96  1  0  0  0
 56 57  1  0  0  0
 60 56  1  0  0  0
 57 58  1  0  0  0
 57 59  1  0  0  0
 60 61  2  0  0  0
 62 60  1  0  0  0
 78 72  1  0  0  0
 79 78  1  0  0  0
 78 89  1  0  0  0
 79 80  1  0  0  0
 84 79  1  0  0  0
 80 81  1  0  0  0
 81 82  1  0  0  0
 81 83  1  0  0  0
 84 85  1  0  0  0
 86 84  1  0  0  0
 85 90  1  0  0  0
 87 86  1  0  0  0
 87 88  2  0  0  0
 91 87  1  0  0  0
 97 93  1  0  0  0
 98 97  1  0  0  0
 97109  1  0  0  0
 98 99  1  0  0  0
103 98  1  0  0  0
 99100  1  0  0  0
100101  1  0  0  0
100102  1  0  0  0
103104  1  0  0  0
103105  1  0  0  0
104110  1  0  0  0
105106  1  0  0  0
106107  1  0  0  0
106108  2  0  0  0
M  END
$$$$
