### 
### Created by X-TOOL on Mon Oct 24 22:00:25 2005
### 

@<TRIPOS>MOLECULE
1gj6_ligand
   43    46     1     0     0
SMALL
GAST_HUCK


@<TRIPOS>ATOM
      1 C1         43.9530   -3.0730   25.6520 C.ar      1 SUB1        0.183
      2 C2         43.7760   -1.6610   25.5810 C.ar      1 SUB1        0.079
      3 C3         43.5480   -0.9200   26.7570 C.ar      1 SUB1       -0.025
      4 C4         43.5080   -1.5780   27.9710 C.ar      1 SUB1        0.063
      5 C5         43.6690   -2.9190   28.0410 C.ar      1 SUB1       -0.022
      6 C6         43.9060   -3.7020   26.9130 C.ar      1 SUB1       -0.020
      7 C7         44.2010   -3.8450   24.4930 C.cat     1 SUB1        0.310
      8 N1         43.8320   -5.1100   24.4240 N.pl3     1 SUB1       -0.201
      9 N2         44.8250   -3.2500   23.5110 N.pl3     1 SUB1       -0.201
     10 N3         43.3150   -1.1180   29.1890 N.pl3     1 SUB1       -0.276
     11 C9         43.5800   -3.2680   29.3620 C.2       1 SUB1       -0.057
     12 C8         43.3470   -2.0890   30.0550 C.2       1 SUB1        0.061
     13 C1'        43.1440   -1.9450   31.4390 C.ar      1 SUB1        0.038
     14 C2'        42.8930   -3.0760   32.2240 C.ar      1 SUB1       -0.059
     15 C3'        42.6970   -2.9580   33.5990 C.ar      1 SUB1       -0.071
     16 C4'        42.6900   -1.7200   34.1950 C.ar      1 SUB1       -0.062
     17 C5'        42.9380   -0.5650   33.4580 C.ar      1 SUB1        0.015
     18 C6'        43.1310   -0.6680   32.0570 C.ar      1 SUB1        0.112
     19 O6'        43.3130    0.4590   31.2760 O.3       1 SUB1       -0.327
     20 C1'        43.0020    0.6370   34.1840 C.ar      1 SUB1       -0.022
     21 C2'        44.1910    1.3700   34.1310 C.ar      1 SUB1       -0.057
     22 C3'        44.3480    2.5330   34.8770 C.ar      1 SUB1       -0.063
     23 C4'        43.3240    2.9930   35.6900 C.ar      1 SUB1       -0.064
     24 C5'        42.1330    2.2810   35.7530 C.ar      1 SUB1       -0.063
     25 C6'        41.9700    1.1080   35.0030 C.ar      1 SUB1       -0.057
     26 CL2        43.7500   -0.6970   24.0830 Cl        1 SUB1       -0.075
     27 H31        43.4056    0.1536   26.7100 H         1 SUB1        0.055
     28 H61        44.0512   -4.7724   27.0031 H         1 SUB1        0.058
     29 H81        44.0214   -5.6559   23.5714 H         1 SUB1        0.192
     30 H82        43.3546   -5.5515   25.2228 H         1 SUB1        0.192
     31 H91        45.0985   -2.2609   23.5988 H         1 SUB1        0.192
     32 H92        45.0433   -3.7702   22.6492 H         1 SUB1        0.192
     33 H101       43.1602   -0.1272   29.4241 H         1 SUB1        0.223
     34 H111       43.6732   -4.2680   29.7831 H         1 SUB1        0.030
     35 H141       42.8506   -4.0538   31.7580 H         1 SUB1        0.059
     36 H151       42.5494   -3.8473   34.2010 H         1 SUB1        0.053
     37 H161       42.4880   -1.6412   35.2571 H         1 SUB1        0.059
     38 H191       43.2795    1.2328   31.8260 H         1 SUB1        0.252
     39 H211       45.0024    1.0269   33.4993 H         1 SUB1        0.061
     40 H221       45.2795    3.0847   34.8222 H         1 SUB1        0.061
     41 H231       43.4513    3.8993   36.2709 H         1 SUB1        0.060
     42 H241       41.3261    2.6340   36.3849 H         1 SUB1        0.061
     43 H251       41.0359    0.5608   35.0581 H         1 SUB1        0.061
@<TRIPOS>BOND
     1    1    7 1  
     2    1    6 ar 
     3    1    2 ar 
     4    2    3 ar 
     5    2   26 1  
     6    3    4 ar 
     7    4   10 1  
     8    4    5 ar 
     9    5   11 1  
    10    6    5 ar 
    11   11   12 2  
    12   12   13 1  
    13   10   12 1  
    14   13   18 ar 
    15   13   14 ar 
    16   18   19 1  
    17   18   17 ar 
    18   17   20 1  
    19   17   16 ar 
    20   16   15 ar 
    21   20   25 ar 
    22   20   21 ar 
    23   21   22 ar 
    24   22   23 ar 
    25   23   24 ar 
    26   25   24 ar 
    27    7    9 1  
    28    7    8 1  
    29   14   15 ar 
    30    3   27 1  
    31    6   28 1  
    32    8   29 1  
    33    8   30 1  
    34    9   31 1  
    35    9   32 1  
    36   10   33 1  
    37   11   34 1  
    38   14   35 1  
    39   15   36 1  
    40   16   37 1  
    41   19   38 1  
    42   21   39 1  
    43   22   40 1  
    44   23   41 1  
    45   24   42 1  
    46   25   43 1  
@<TRIPOS>SUBSTRUCTURE
     1 SUB1        1 GROUP

