### 
### Created by X-TOOL on Mon Oct 24 22:39:06 2005
### 

@<TRIPOS>MOLECULE
5abp_ligand
   24    24     1     0     0
SMALL
GAST_HUCK


@<TRIPOS>ATOM
      1 H131       14.7968   57.7092   56.0710 H         1 SUB1        0.094
      2 H141       13.0435   58.3289   54.5733 H         1 SUB1        0.067
      3 H151       12.5326   55.3722   54.2555 H         1 SUB1        0.065
      4 H161       13.1871   55.6681   51.9459 H         1 SUB1        0.065
      5 H171       14.9999   55.1502   53.4001 H         1 SUB1        0.065
      6 H181       15.9247   57.6715   51.8151 H         1 SUB1        0.058
      7 H182       15.5290   56.1341   50.9747 H         1 SUB1        0.058
      8 H191       14.0921   55.6461   56.6420 H         1 SUB1        0.213
      9 H201       11.3653   57.5301   56.0089 H         1 SUB1        0.210
     10 H211       11.1517   57.5986   53.2500 H         1 SUB1        0.210
     11 H221       12.2990   57.8029   51.7750 H         1 SUB1        0.210
     12 H241       17.3319   56.4404   53.1436 H         1 SUB1        0.209
     13 C1         14.4720   56.9750   55.3190 C.3       1 SUB1        0.185
     14 C2         13.0680   57.2990   54.9590 C.3       1 SUB1        0.134
     15 C3         12.5200   56.4060   53.8800 C.3       1 SUB1        0.114
     16 C4         13.4660   56.4640   52.6520 C.3       1 SUB1        0.112
     17 C5         14.8860   56.1970   53.0820 C.3       1 SUB1        0.113
     18 C6         15.8590   56.5790   51.9250 C.3       1 SUB1        0.073
     19 O1         14.6450   55.7290   55.8740 O.3       1 SUB1       -0.365
     20 O2         12.2520   57.2490   56.2020 O.3       1 SUB1       -0.384
     21 O3         11.2010   56.7160   53.5980 O.3       1 SUB1       -0.386
     22 O4         13.2190   57.7380   52.0030 O.3       1 SUB1       -0.387
     23 O5         15.3160   57.1410   54.1220 O.3       1 SUB1       -0.341
     24 O6         17.0720   56.0530   52.3160 O.3       1 SUB1       -0.392
@<TRIPOS>BOND
     1   13    1 1  
     2   14    2 1  
     3   15    3 1  
     4   16    4 1  
     5   17    5 1  
     6   18    6 1  
     7   18    7 1  
     8   19    8 1  
     9   20    9 1  
    10   21   10 1  
    11   22   11 1  
    12   24   12 1  
    13   13   14 1  
    14   13   19 1  
    15   23   13 1  
    16   15   14 1  
    17   14   20 1  
    18   16   15 1  
    19   15   21 1  
    20   17   16 1  
    21   16   22 1  
    22   18   17 1  
    23   17   23 1  
    24   18   24 1  
@<TRIPOS>SUBSTRUCTURE
     1 SUB1        1 GROUP

