5abp_ligand
  -I-interpret- 

 24 24  0  0  0  0  0  0  0  0999 V2000
   14.7968   57.7092   56.0710 H   0  0  0  0  0
   13.0435   58.3289   54.5733 H   0  0  0  0  0
   12.5326   55.3722   54.2555 H   0  0  0  0  0
   13.1871   55.6681   51.9459 H   0  0  0  0  0
   14.9999   55.1502   53.4001 H   0  0  0  0  0
   15.9247   57.6715   51.8151 H   0  0  0  0  0
   15.5290   56.1341   50.9747 H   0  0  0  0  0
   14.0921   55.6461   56.6420 H   0  0  0  0  0
   11.3653   57.5301   56.0089 H   0  0  0  0  0
   11.1517   57.5986   53.2500 H   0  0  0  0  0
   12.2990   57.8029   51.7750 H   0  0  0  0  0
   17.3319   56.4404   53.1436 H   0  0  0  0  0
   14.4720   56.9750   55.3190 C   0  0  0  0  0
   13.0680   57.2990   54.9590 C   0  0  0  0  0
   12.5200   56.4060   53.8800 C   0  0  0  0  0
   13.4660   56.4640   52.6520 C   0  0  0  0  0
   14.8860   56.1970   53.0820 C   0  0  0  0  0
   15.8590   56.5790   51.9250 C   0  0  0  0  0
   14.6450   55.7290   55.8740 O   0  0  0  0  0
   12.2520   57.2490   56.2020 O   0  0  0  0  0
   11.2010   56.7160   53.5980 O   0  0  0  0  0
   13.2190   57.7380   52.0030 O   0  0  0  0  0
   15.3160   57.1410   54.1220 O   0  0  0  0  0
   17.0720   56.0530   52.3160 O   0  0  0  0  0
 13  1  1  0  0  0
 14  2  1  0  0  0
 15  3  1  0  0  0
 16  4  1  0  0  0
 17  5  1  0  0  0
 18  6  1  0  0  0
 18  7  1  0  0  0
 19  8  1  0  0  0
 20  9  1  0  0  0
 21 10  1  0  0  0
 22 11  1  0  0  0
 24 12  1  0  0  0
 13 14  1  0  0  0
 13 19  1  0  0  0
 23 13  1  0  0  0
 15 14  1  0  0  0
 14 20  1  0  0  0
 16 15  1  0  0  0
 15 21  1  0  0  0
 17 16  1  0  0  0
 16 22  1  0  0  0
 18 17  1  0  0  0
 17 23  1  0  0  0
 18 24  1  0  0  0
M  END
$$$$
