### 
### Created by X-TOOL on Sun Jun  3 11:28:51 2007
### 

@<TRIPOS>MOLECULE
2hb1_ligand
   17    17     1     0     0
SMALL
GAST_HUCK


@<TRIPOS>ATOM
      1 C1         45.2050   12.9580    1.1080 C.2       1 SUB1        0.100
      2 C2         45.7690   13.3870    2.3300 C.2       1 SUB1        0.141
      3 S3         44.4110   14.2720    0.3820 S.3       1 SUB1        0.107
      4 C4         44.7680   15.3960    1.6130 C.2       1 SUB1        0.225
      5 C5         45.5320   14.7580    2.6290 C.2       1 SUB1        0.236
      6 C6         44.3330   16.7240    1.5480 C.2       1 SUB1        0.153
      7 O7         43.6320   17.0320    0.4400 O.2       1 SUB1       -0.538
      8 O8         46.0460   15.3500    3.8450 O.3       1 SUB1       -0.246
      9 C9         47.2700   16.0930    3.6600 C.3       1 SUB1        0.199
     10 C10        47.5730   16.9740    4.8740 C.2       1 SUB1        0.379
     11 O13        48.7260   17.6560    4.7940 O.2       1 SUB1       -0.259
     12 O14        44.5590   17.5410    2.4090 O.2       1 SUB1       -0.538
     13 O15        46.8560   17.0500    5.8220 O.2       1 SUB1       -0.259
     14 BR19       46.7460   12.2290    3.4440 Br        1 SUB1       -0.033
     15 H          45.2689   11.9498    0.6986 H         1 SUB1        0.155
     16 H          47.1588   16.7334    2.7850 H         1 SUB1        0.088
     17 H          48.0894   15.3860    3.5306 H         1 SUB1        0.088
@<TRIPOS>BOND
     1    1    2 2  
     2    1    3 1  
     3    2    5 1  
     4    2   14 1  
     5    3    4 1  
     6    4    5 2  
     7    4    6 1  
     8    5    8 1  
     9    6    7 2  
    10    6   12 2  
    11    8    9 1  
    12    9   10 1  
    13   10   11 2  
    14   10   13 2  
    15    1   15 1  
    16    9   16 1  
    17    9   17 1  
@<TRIPOS>SUBSTRUCTURE
     1 SUB1        1 GROUP

