1b6h_ligand
  -I-interpret- 

 63 62  0  0  0  0  0  0  0  0999 V2000
    6.9380   16.5310   15.1250 N   0  3  0  0  0
    6.4620   17.8240   14.5740 C   0  0  0  0  0
    5.2090   18.3150   15.3120 C   0  0  0  0  0
    4.4430   17.5090   15.8290 O   0  0  0  0  0
    6.1930   17.7870   13.0570 C   0  0  0  0  0
    5.2520   16.6620   12.6330 C   0  0  0  0  0
    5.2210   16.5570   11.0870 C   0  0  0  0  0
    6.5020   15.8980   10.5730 C   0  0  0  0  0
    6.5780   14.4400   10.8960 N   0  3  0  0  0
    5.0520   19.6220   15.3700 N   0  0  0  0  0
    3.9570   20.2560   16.0860 C   0  0  0  0  0
    4.3130   21.7180   16.4190 C   0  0  0  0  0
    5.3540   21.6450   17.5830 C   0  0  0  0  0
    5.5270   22.9880   18.2430 C   0  0  0  0  0
    2.6490   20.2390   15.3140 C   0  0  0  0  0
    2.6210   20.5390   14.1260 O   0  0  0  0  0
    1.5780   19.8850   16.0210 N   0  0  0  0  0
    0.2710   19.8990   15.3840 C   0  0  0  0  0
   -0.7230   20.7610   16.1800 C   0  0  0  0  0
   -1.7540   21.0940   15.5420 O   0  5  0  0  0
   -0.3290   18.5040   15.2150 C   0  0  0  0  0
   -1.3930   18.5240   14.1090 C   0  0  0  0  0
   -2.1320   17.2180   13.9920 C   0  0  0  0  0
   -2.9400   17.0800   12.7120 C   0  0  0  0  0
   -3.6970   18.3410   12.4480 N   0  3  0  0  0
   -0.4410   21.1260   17.3310 O   0  0  0  0  0
    6.3451   16.2538   15.8916 H   0  0  0  0  0
    7.2615   18.5597   14.7456 H   0  0  0  0  0
    7.1526   17.6531   12.5363 H   0  0  0  0  0
    5.7451   18.7465   12.7592 H   0  0  0  0  0
    4.2387   16.8740   13.0048 H   0  0  0  0  0
    5.6063   15.7106   13.0565 H   0  0  0  0  0
    5.1341   17.5656   10.6566 H   0  0  0  0  0
    4.3543   15.9523   10.7818 H   0  0  0  0  0
    7.3648   16.4040   11.0308 H   0  0  0  0  0
    6.5440   16.0178    9.4804 H   0  0  0  0  0
    6.5588   14.3160   11.8962 H   0  0  0  0  0
    7.4346   14.0582   10.5265 H   0  0  0  0  0
    5.7919   13.9629   10.4831 H   0  0  0  0  0
    1.6712   19.6127   16.9787 H   0  0  0  0  0
    0.3939   20.3413   14.3844 H   0  0  0  0  0
   -0.7926   18.1891   16.1615 H   0  0  0  0  0
    0.4668   17.7951   14.9429 H   0  0  0  0  0
   -0.8994   18.7364   13.1492 H   0  0  0  0  0
   -2.1183   19.3203   14.3324 H   0  0  0  0  0
   -2.8193   17.1312   14.8464 H   0  0  0  0  0
   -1.3975   16.4000   14.0278 H   0  0  0  0  0
   -3.6483   16.2449   12.8164 H   0  0  0  0  0
   -2.2595   16.8806   11.8711 H   0  0  0  0  0
   -4.3291   18.5197   13.2125 H   0  0  0  0  0
   -4.2224   18.2448   11.5931 H   0  0  0  0  0
   -3.0502   19.1091   12.3602 H   0  0  0  0  0
    7.8855   16.6340   15.4533 H   0  0  0  0  0
    6.9067   15.8268   14.4045 H   0  0  0  0  0
    5.7159   20.2040   14.9004 H   0  0  0  0  0
    3.8067   19.7061   17.0267 H   0  0  0  0  0
    3.4160   22.2675   16.7406 H   0  0  0  0  0
    4.7528   22.2151   15.5418 H   0  0  0  0  0
    6.3226   21.3166   17.1782 H   0  0  0  0  0
    5.0045   20.9193   18.3321 H   0  0  0  0  0
    6.2636   22.9049   19.0558 H   0  0  0  0  0
    4.5629   23.3212   18.6546 H   0  0  0  0  0
    5.8810   23.7185   17.5007 H   0  0  0  0  0
  3  2  1  0  0  0
  2  5  1  0  0  0
  2  1  1  0  0  0
  5  6  1  0  0  0
  6  7  1  0  0  0
  7  8  1  0  0  0
  8  9  1  0  0  0
  3  4  2  0  0  0
 11 10  1  0  0  0
 15 11  1  0  0  0
 11 12  1  0  0  0
 12 13  1  0  0  0
 13 14  1  0  0  0
 15 16  2  0  0  0
 18 19  1  0  0  0
 18 21  1  0  0  0
 17 18  1  0  0  0
 21 22  1  0  0  0
 22 23  1  0  0  0
 23 24  1  0  0  0
 24 25  1  0  0  0
 19 26  2  0  0  0
 19 20  1  0  0  0
 10  3  1  0  0  0
 15 17  1  0  0  0
  1 27  1  0  0  0
  2 28  1  0  0  0
  5 29  1  0  0  0
  5 30  1  0  0  0
  6 31  1  0  0  0
  6 32  1  0  0  0
  7 33  1  0  0  0
  7 34  1  0  0  0
  8 35  1  0  0  0
  8 36  1  0  0  0
  9 37  1  0  0  0
  9 38  1  0  0  0
  9 39  1  0  0  0
 17 40  1  0  0  0
 18 41  1  0  0  0
 21 42  1  0  0  0
 21 43  1  0  0  0
 22 44  1  0  0  0
 22 45  1  0  0  0
 23 46  1  0  0  0
 23 47  1  0  0  0
 24 48  1  0  0  0
 24 49  1  0  0  0
 25 50  1  0  0  0
 25 51  1  0  0  0
 25 52  1  0  0  0
  1 53  1  0  0  0
  1 54  1  0  0  0
 10 55  1  0  0  0
 11 56  1  0  0  0
 12 57  1  0  0  0
 12 58  1  0  0  0
 13 59  1  0  0  0
 13 60  1  0  0  0
 14 61  1  0  0  0
 14 62  1  0  0  0
 14 63  1  0  0  0
M  END
$$$$
