### 
### Created by X-TOOL on Mon Oct 24 22:40:04 2005
### 

@<TRIPOS>MOLECULE
1b6h_ligand
   63    62     1     0     0
SMALL
GAST_HUCK


@<TRIPOS>ATOM
      1 N           6.9380   16.5310   15.1250 N.4       1 SUB1        0.238
      2 CA          6.4620   17.8240   14.5740 C.3       1 SUB1        0.065
      3 C           5.2090   18.3150   15.3120 C.2       1 SUB1        0.227
      4 O           4.4430   17.5090   15.8290 O.2       1 SUB1       -0.391
      5 CB          6.1930   17.7870   13.0570 C.3       1 SUB1        0.008
      6 CG          5.2520   16.6620   12.6330 C.3       1 SUB1       -0.041
      7 CD          5.2210   16.5570   11.0870 C.3       1 SUB1       -0.012
      8 CE          6.5020   15.8980   10.5730 C.3       1 SUB1       -0.035
      9 NZ          6.5780   14.4400   10.8960 N.4       1 SUB1        0.219
     10 N           5.0520   19.6220   15.3700 N.am      1 SUB1       -0.261
     11 CA          3.9570   20.2560   16.0860 C.3       1 SUB1        0.131
     12 CB          4.3130   21.7180   16.4190 C.3       1 SUB1       -0.013
     13 CG          5.3540   21.6450   17.5830 C.3       1 SUB1       -0.052
     14 CD          5.5270   22.9880   18.2430 C.3       1 SUB1       -0.065
     15 C           2.6490   20.2390   15.3140 C.2       1 SUB1        0.205
     16 O           2.6210   20.5390   14.1260 O.2       1 SUB1       -0.394
     17 N           1.5780   19.8850   16.0210 N.am      1 SUB1       -0.268
     18 CA          0.2710   19.8990   15.3840 C.3       1 SUB1        0.081
     19 C          -0.7230   20.7610   16.1800 C.2       1 SUB1        0.053
     20 O          -1.7540   21.0940   15.5420 O.co2     1 SUB1       -0.564
     21 CB         -0.3290   18.5040   15.2150 C.3       1 SUB1       -0.018
     22 CG         -1.3930   18.5240   14.1090 C.3       1 SUB1       -0.043
     23 CD         -2.1320   17.2180   13.9920 C.3       1 SUB1       -0.012
     24 CE         -2.9400   17.0800   12.7120 C.3       1 SUB1       -0.035
     25 NZ         -3.6970   18.3410   12.4480 N.4       1 SUB1        0.219
     26 OXT        -0.4410   21.1260   17.3310 O.co2     1 SUB1       -0.564
     27 H11         6.3451   16.2538   15.8916 H         1 SUB1        0.201
     28 H21         7.2615   18.5597   14.7456 H         1 SUB1        0.110
     29 H51         7.1526   17.6531   12.5363 H         1 SUB1        0.035
     30 H52         5.7451   18.7465   12.7592 H         1 SUB1        0.035
     31 H61         4.2387   16.8740   13.0048 H         1 SUB1        0.027
     32 H62         5.6063   15.7106   13.0565 H         1 SUB1        0.027
     33 H71         5.1341   17.5656   10.6566 H         1 SUB1        0.032
     34 H72         4.3543   15.9523   10.7818 H         1 SUB1        0.032
     35 H81         7.3648   16.4040   11.0308 H         1 SUB1        0.081
     36 H82         6.5440   16.0178    9.4804 H         1 SUB1        0.081
     37 H91         6.5588   14.3160   11.8962 H         1 SUB1        0.199
     38 H92         7.4346   14.0582   10.5265 H         1 SUB1        0.199
     39 H93         5.7919   13.9629   10.4831 H         1 SUB1        0.199
     40 H171        1.6712   19.6127   16.9787 H         1 SUB1        0.190
     41 H181        0.3939   20.3413   14.3844 H         1 SUB1        0.078
     42 H211       -0.7926   18.1891   16.1615 H         1 SUB1        0.032
     43 H212        0.4668   17.7951   14.9429 H         1 SUB1        0.032
     44 H221       -0.8994   18.7364   13.1492 H         1 SUB1        0.027
     45 H222       -2.1183   19.3203   14.3324 H         1 SUB1        0.027
     46 H231       -2.8193   17.1312   14.8464 H         1 SUB1        0.032
     47 H232       -1.3975   16.4000   14.0278 H         1 SUB1        0.032
     48 H241       -3.6483   16.2449   12.8164 H         1 SUB1        0.081
     49 H242       -2.2595   16.8806   11.8711 H         1 SUB1        0.081
     50 H251       -4.3291   18.5197   13.2125 H         1 SUB1        0.199
     51 H252       -4.2224   18.2448   11.5931 H         1 SUB1        0.199
     52 H253       -3.0502   19.1091   12.3602 H         1 SUB1        0.199
     53 H12         7.8855   16.6340   15.4533 H         1 SUB1        0.201
     54 H13         6.9067   15.8268   14.4045 H         1 SUB1        0.201
     55 H101        5.7159   20.2040   14.9004 H         1 SUB1        0.188
     56 H111        3.8067   19.7061   17.0267 H         1 SUB1        0.080
     57 H121        3.4160   22.2675   16.7406 H         1 SUB1        0.031
     58 H122        4.7528   22.2151   15.5418 H         1 SUB1        0.031
     59 H131        6.3226   21.3166   17.1782 H         1 SUB1        0.026
     60 H132        5.0045   20.9193   18.3321 H         1 SUB1        0.026
     61 H141        6.2636   22.9049   19.0558 H         1 SUB1        0.023
     62 H142        4.5629   23.3212   18.6546 H         1 SUB1        0.023
     63 H143        5.8810   23.7185   17.5007 H         1 SUB1        0.023
@<TRIPOS>BOND
     1    3    2 1  
     2    2    5 1  
     3    2    1 1  
     4    5    6 1  
     5    6    7 1  
     6    7    8 1  
     7    8    9 1  
     8    3    4 2  
     9   11   10 1  
    10   15   11 1  
    11   11   12 1  
    12   12   13 1  
    13   13   14 1  
    14   15   16 2  
    15   18   19 1  
    16   18   21 1  
    17   17   18 1  
    18   21   22 1  
    19   22   23 1  
    20   23   24 1  
    21   24   25 1  
    22   19   26 2  
    23   19   20 2  
    24   10    3 am 
    25   15   17 am 
    26    1   27 1  
    27    2   28 1  
    28    5   29 1  
    29    5   30 1  
    30    6   31 1  
    31    6   32 1  
    32    7   33 1  
    33    7   34 1  
    34    8   35 1  
    35    8   36 1  
    36    9   37 1  
    37    9   38 1  
    38    9   39 1  
    39   17   40 1  
    40   18   41 1  
    41   21   42 1  
    42   21   43 1  
    43   22   44 1  
    44   22   45 1  
    45   23   46 1  
    46   23   47 1  
    47   24   48 1  
    48   24   49 1  
    49   25   50 1  
    50   25   51 1  
    51   25   52 1  
    52    1   53 1  
    53    1   54 1  
    54   10   55 1  
    55   11   56 1  
    56   12   57 1  
    57   12   58 1  
    58   13   59 1  
    59   13   60 1  
    60   14   61 1  
    61   14   62 1  
    62   14   63 1  
@<TRIPOS>SUBSTRUCTURE
     1 SUB1        1 GROUP

