### 
### Created by X-TOOL on Sun Jun  3 11:28:52 2007
### 

@<TRIPOS>MOLECULE
2hh5_ligand
   70    72     1     0     0
SMALL
GAST_HUCK


@<TRIPOS>ATOM
      1 O5         14.6730   -1.1680   -4.4990 O.2       1 SUB1       -0.172
      2 S          14.4340   -2.2650   -5.3770 S.o2      1 SUB1       -0.017
      3 O4         13.3910   -2.1160   -6.3140 O.2       1 SUB1       -0.172
      4 C17        14.2960   -3.7040   -4.5030 C.3       1 SUB1        0.100
      5 C18        13.1660   -3.6720   -3.5070 C.ar      1 SUB1       -0.022
      6 C20        11.9170   -4.2050   -3.8220 C.ar      1 SUB1       -0.059
      7 C21        10.8990   -4.1590   -2.8810 C.ar      1 SUB1       -0.068
      8 C22        11.1390   -3.5950   -1.6420 C.ar      1 SUB1       -0.069
      9 C23        12.3780   -3.0770   -1.3200 C.ar      1 SUB1       -0.068
     10 C19        13.4000   -3.1050   -2.2650 C.ar      1 SUB1       -0.059
     11 C16        15.8400   -2.4890   -6.3140 C.3       1 SUB1        0.108
     12 CA         15.6420   -3.2530   -7.6340 C.3       1 SUB1        0.150
     13 N          15.5470   -4.6770   -7.3600 N.am      1 SUB1       -0.250
     14 C11        15.2180   -5.4600   -8.3910 C.2       1 SUB1        0.262
     15 O3         14.9720   -4.9440   -9.4720 O.2       1 SUB1       -0.400
     16 N3         15.1590   -6.7850   -8.3010 N.am      1 SUB1       -0.255
     17 C15        14.7600   -7.5830   -9.4650 C.3       1 SUB1        0.058
     18 C14        15.6370   -8.8070   -9.5840 C.3       1 SUB1        0.068
     19 O2         15.4990   -9.5630   -8.3880 O.3       1 SUB1       -0.376
     20 C13        16.0570   -8.8220   -7.2860 C.3       1 SUB1        0.068
     21 C12        15.3570   -7.5040   -7.0510 C.3       1 SUB1        0.058
     22 C          16.8260   -3.0280   -8.5700 C.2       1 SUB1        0.203
     23 O          17.9360   -3.4500   -8.2840 O.2       1 SUB1       -0.394
     24 N2         16.5950   -2.3290   -9.7040 N.am      1 SUB1       -0.280
     25 C9         17.6370   -2.0440  -10.6530 C.3       1 SUB1        0.058
     26 C10        17.9450   -3.2960  -11.4550 C.3       1 SUB1       -0.040
     27 C8         17.2050   -0.9100  -11.5950 C.3       1 SUB1        0.044
     28 N1         16.5480    0.2570  -10.9340 N.pl3     1 SUB1       -0.326
     29 C7         16.0730    1.1760  -11.8060 C.ar      1 SUB1        0.027
     30 C6         14.7270    1.5080  -11.8150 C.ar      1 SUB1       -0.053
     31 C5         14.2200    2.4400  -12.7070 C.ar      1 SUB1       -0.044
     32 C4         16.9100    1.7530  -12.7660 C.ar      1 SUB1       -0.053
     33 C3         16.3960    2.6880  -13.6650 C.ar      1 SUB1       -0.044
     34 C2         15.0300    3.0280  -13.6450 C.ar      1 SUB1        0.087
     35 O1         14.4170    3.8990  -14.5290 O.3       1 SUB1       -0.235
     36 C1         15.0880    4.9340  -15.2010 C.3       1 SUB1        0.544
     37 F1         15.8910    4.3830  -16.1210 F         1 SUB1       -0.140
     38 F2         14.1960    5.7470  -15.7220 F         1 SUB1       -0.140
     39 F3         15.7390    5.6490  -14.3110 F         1 SUB1       -0.140
     40 H          15.2246   -3.8515   -3.9516 H         1 SUB1        0.066
     41 H          14.0959   -4.5082   -5.2110 H         1 SUB1        0.066
     42 H          11.7418   -4.6541   -4.7996 H         1 SUB1        0.056
     43 H           9.9155   -4.5652   -3.1171 H         1 SUB1        0.060
     44 H          10.3359   -3.5585   -0.9059 H         1 SUB1        0.056
     45 H          12.5545   -2.6493   -0.3331 H         1 SUB1        0.060
     46 H          14.3773   -2.6838   -2.0292 H         1 SUB1        0.056
     47 H          16.5235   -3.0856   -5.7099 H         1 SUB1        0.055
     48 H          16.1960   -1.4942   -6.5818 H         1 SUB1        0.055
     49 H          14.7294   -2.8880   -8.1053 H         1 SUB1        0.081
     50 H          15.7222   -5.0582   -6.4302 H         1 SUB1        0.188
     51 H          14.8672   -6.9785  -10.3656 H         1 SUB1        0.054
     52 H          13.7234   -7.8973   -9.3436 H         1 SUB1        0.054
     53 H          16.6770   -8.5132   -9.7264 H         1 SUB1        0.058
     54 H          15.3357   -9.4044  -10.4445 H         1 SUB1        0.058
     55 H          17.0995   -8.6084   -7.5218 H         1 SUB1        0.058
     56 H          15.9418   -9.4258   -6.3859 H         1 SUB1        0.058
     57 H          14.3825   -7.7016   -6.6044 H         1 SUB1        0.054
     58 H          15.9747   -6.8939   -6.3920 H         1 SUB1        0.054
     59 H          15.6506   -1.9928   -9.8925 H         1 SUB1        0.185
     60 H          18.5315   -1.7270  -10.1168 H         1 SUB1        0.057
     61 H          18.2727   -4.0868  -10.7802 H         1 SUB1        0.025
     62 H          17.0477   -3.6169  -11.9842 H         1 SUB1        0.025
     63 H          18.7349   -3.0800  -12.1744 H         1 SUB1        0.025
     64 H          16.4694   -1.3357  -12.2775 H         1 SUB1        0.053
     65 H          18.1136   -0.5314  -12.0633 H         1 SUB1        0.053
     66 H          16.4653    0.3521   -9.9218 H         1 SUB1        0.172
     67 H          14.0536    1.0262  -11.1061 H         1 SUB1        0.049
     68 H          13.1646    2.7090  -12.6625 H         1 SUB1        0.051
     69 H          17.9624    1.4728  -12.8120 H         1 SUB1        0.049
     70 H          17.0588    3.1600  -14.3902 H         1 SUB1        0.051
@<TRIPOS>BOND
     1    1    2 2  
     2    2    3 2  
     3    2    4 1  
     4    2   11 1  
     5    4    5 1  
     6    5    6 ar 
     7    5   10 ar 
     8    6    7 ar 
     9    7    8 ar 
    10    8    9 ar 
    11    9   10 ar 
    12   11   12 1  
    13   12   13 1  
    14   12   22 1  
    15   13   14 am 
    16   14   15 2  
    17   14   16 am 
    18   16   17 1  
    19   16   21 1  
    20   17   18 1  
    21   18   19 1  
    22   19   20 1  
    23   20   21 1  
    24   22   23 2  
    25   22   24 am 
    26   24   25 1  
    27   25   26 1  
    28   25   27 1  
    29   27   28 1  
    30   28   29 1  
    31   29   30 ar 
    32   29   32 ar 
    33   30   31 ar 
    34   31   34 ar 
    35   32   33 ar 
    36   33   34 ar 
    37   34   35 1  
    38   35   36 1  
    39   36   37 1  
    40   36   38 1  
    41   36   39 1  
    42    4   40 1  
    43    4   41 1  
    44    6   42 1  
    45    7   43 1  
    46    8   44 1  
    47    9   45 1  
    48   10   46 1  
    49   11   47 1  
    50   11   48 1  
    51   12   49 1  
    52   13   50 1  
    53   17   51 1  
    54   17   52 1  
    55   18   53 1  
    56   18   54 1  
    57   20   55 1  
    58   20   56 1  
    59   21   57 1  
    60   21   58 1  
    61   24   59 1  
    62   25   60 1  
    63   26   61 1  
    64   26   62 1  
    65   26   63 1  
    66   27   64 1  
    67   27   65 1  
    68   28   66 1  
    69   30   67 1  
    70   31   68 1  
    71   32   69 1  
    72   33   70 1  
@<TRIPOS>SUBSTRUCTURE
     1 SUB1        1 GROUP

