2hh5_ligand
  -I-interpret- 

 70 72  0  0  0  0  0  0  0  0999 V2000
   14.6730   -1.1680   -4.4990 O   0  0  0  0  0
   14.4340   -2.2650   -5.3770 S   0  0  0  0  0
   13.3910   -2.1160   -6.3140 O   0  0  0  0  0
   14.2960   -3.7040   -4.5030 C   0  0  0  0  0
   13.1660   -3.6720   -3.5070 C   0  0  0  0  0
   11.9170   -4.2050   -3.8220 C   0  0  0  0  0
   10.8990   -4.1590   -2.8810 C   0  0  0  0  0
   11.1390   -3.5950   -1.6420 C   0  0  0  0  0
   12.3780   -3.0770   -1.3200 C   0  0  0  0  0
   13.4000   -3.1050   -2.2650 C   0  0  0  0  0
   15.8400   -2.4890   -6.3140 C   0  0  0  0  0
   15.6420   -3.2530   -7.6340 C   0  0  0  0  0
   15.5470   -4.6770   -7.3600 N   0  0  0  0  0
   15.2180   -5.4600   -8.3910 C   0  0  0  0  0
   14.9720   -4.9440   -9.4720 O   0  0  0  0  0
   15.1590   -6.7850   -8.3010 N   0  0  0  0  0
   14.7600   -7.5830   -9.4650 C   0  0  0  0  0
   15.6370   -8.8070   -9.5840 C   0  0  0  0  0
   15.4990   -9.5630   -8.3880 O   0  0  0  0  0
   16.0570   -8.8220   -7.2860 C   0  0  0  0  0
   15.3570   -7.5040   -7.0510 C   0  0  0  0  0
   16.8260   -3.0280   -8.5700 C   0  0  0  0  0
   17.9360   -3.4500   -8.2840 O   0  0  0  0  0
   16.5950   -2.3290   -9.7040 N   0  0  0  0  0
   17.6370   -2.0440  -10.6530 C   0  0  0  0  0
   17.9450   -3.2960  -11.4550 C   0  0  0  0  0
   17.2050   -0.9100  -11.5950 C   0  0  0  0  0
   16.5480    0.2570  -10.9340 N   0  0  0  0  0
   16.0730    1.1760  -11.8060 C   0  0  0  0  0
   14.7270    1.5080  -11.8150 C   0  0  0  0  0
   14.2200    2.4400  -12.7070 C   0  0  0  0  0
   16.9100    1.7530  -12.7660 C   0  0  0  0  0
   16.3960    2.6880  -13.6650 C   0  0  0  0  0
   15.0300    3.0280  -13.6450 C   0  0  0  0  0
   14.4170    3.8990  -14.5290 O   0  0  0  0  0
   15.0880    4.9340  -15.2010 C   0  0  0  0  0
   15.8910    4.3830  -16.1210 F   0  0  0  0  0
   14.1960    5.7470  -15.7220 F   0  0  0  0  0
   15.7390    5.6490  -14.3110 F   0  0  0  0  0
   15.2246   -3.8515   -3.9516 H   0  0  0  0  0
   14.0959   -4.5082   -5.2110 H   0  0  0  0  0
   11.7418   -4.6541   -4.7996 H   0  0  0  0  0
    9.9155   -4.5652   -3.1171 H   0  0  0  0  0
   10.3359   -3.5585   -0.9059 H   0  0  0  0  0
   12.5545   -2.6493   -0.3331 H   0  0  0  0  0
   14.3773   -2.6838   -2.0292 H   0  0  0  0  0
   16.5235   -3.0856   -5.7099 H   0  0  0  0  0
   16.1960   -1.4942   -6.5818 H   0  0  0  0  0
   14.7294   -2.8880   -8.1053 H   0  0  0  0  0
   15.7222   -5.0582   -6.4302 H   0  0  0  0  0
   14.8672   -6.9785  -10.3656 H   0  0  0  0  0
   13.7234   -7.8973   -9.3436 H   0  0  0  0  0
   16.6770   -8.5132   -9.7264 H   0  0  0  0  0
   15.3357   -9.4044  -10.4445 H   0  0  0  0  0
   17.0995   -8.6084   -7.5218 H   0  0  0  0  0
   15.9418   -9.4258   -6.3859 H   0  0  0  0  0
   14.3825   -7.7016   -6.6044 H   0  0  0  0  0
   15.9747   -6.8939   -6.3920 H   0  0  0  0  0
   15.6506   -1.9928   -9.8925 H   0  0  0  0  0
   18.5315   -1.7270  -10.1168 H   0  0  0  0  0
   18.2727   -4.0868  -10.7802 H   0  0  0  0  0
   17.0477   -3.6169  -11.9842 H   0  0  0  0  0
   18.7349   -3.0800  -12.1744 H   0  0  0  0  0
   16.4694   -1.3357  -12.2775 H   0  0  0  0  0
   18.1136   -0.5314  -12.0633 H   0  0  0  0  0
   16.4653    0.3521   -9.9218 H   0  0  0  0  0
   14.0536    1.0262  -11.1061 H   0  0  0  0  0
   13.1646    2.7090  -12.6625 H   0  0  0  0  0
   17.9624    1.4728  -12.8120 H   0  0  0  0  0
   17.0588    3.1600  -14.3902 H   0  0  0  0  0
  1  2  2  0  0  0
  2  3  2  0  0  0
  2  4  1  0  0  0
  2 11  1  0  0  0
  4  5  1  0  0  0
  5  6  4  0  0  0
  5 10  4  0  0  0
  6  7  4  0  0  0
  7  8  4  0  0  0
  8  9  4  0  0  0
  9 10  4  0  0  0
 11 12  1  0  0  0
 12 13  1  0  0  0
 12 22  1  0  0  0
 13 14  1  0  0  0
 14 15  2  0  0  0
 14 16  1  0  0  0
 16 17  1  0  0  0
 16 21  1  0  0  0
 17 18  1  0  0  0
 18 19  1  0  0  0
 19 20  1  0  0  0
 20 21  1  0  0  0
 22 23  2  0  0  0
 22 24  1  0  0  0
 24 25  1  0  0  0
 25 26  1  0  0  0
 25 27  1  0  0  0
 27 28  1  0  0  0
 28 29  1  0  0  0
 29 30  4  0  0  0
 29 32  4  0  0  0
 30 31  4  0  0  0
 31 34  4  0  0  0
 32 33  4  0  0  0
 33 34  4  0  0  0
 34 35  1  0  0  0
 35 36  1  0  0  0
 36 37  1  0  0  0
 36 38  1  0  0  0
 36 39  1  0  0  0
  4 40  1  0  0  0
  4 41  1  0  0  0
  6 42  1  0  0  0
  7 43  1  0  0  0
  8 44  1  0  0  0
  9 45  1  0  0  0
 10 46  1  0  0  0
 11 47  1  0  0  0
 11 48  1  0  0  0
 12 49  1  0  0  0
 13 50  1  0  0  0
 17 51  1  0  0  0
 17 52  1  0  0  0
 18 53  1  0  0  0
 18 54  1  0  0  0
 20 55  1  0  0  0
 20 56  1  0  0  0
 21 57  1  0  0  0
 21 58  1  0  0  0
 24 59  1  0  0  0
 25 60  1  0  0  0
 26 61  1  0  0  0
 26 62  1  0  0  0
 26 63  1  0  0  0
 27 64  1  0  0  0
 27 65  1  0  0  0
 28 66  1  0  0  0
 30 67  1  0  0  0
 31 68  1  0  0  0
 32 69  1  0  0  0
 33 70  1  0  0  0
M  END
$$$$
