### 
### Created by X-TOOL on Sun Jun  3 11:17:32 2007
### 

@<TRIPOS>MOLECULE
2c02_ligand
   39    41     1     0     0
SMALL
GAST_HUCK


@<TRIPOS>ATOM
      1 PB         13.2450   14.5830    7.0130 P.3       1 SUB1        0.652
      2 O1B        14.8210   14.7350    6.5590 O.2       1 SUB1       -0.209
      3 O2B        12.6990   15.7960    7.4900 O.2       1 SUB1       -0.209
      4 O3B        12.3660   13.9890    6.0000 O.2       1 SUB1       -0.209
      5 PA         12.8750   13.6970    9.5600 P.3       1 SUB1        0.543
      6 O1A        13.4860   14.8140   10.2580 O.2       1 SUB1       -0.277
      7 O2A        11.3940   13.8220    9.6560 O.2       1 SUB1       -0.277
      8 O3A        13.3020   13.5830    8.1350 O.3       1 SUB1       -0.043
      9 O5         13.2040   12.2420   10.3010 O.3       1 SUB1       -0.216
     10 C5         12.8480   12.0590   11.7630 C.3       1 SUB1        0.116
     11 C4         13.2280   10.6840   12.3010 C.3       1 SUB1        0.119
     12 O4         12.0780    9.9380   12.7490 O.3       1 SUB1       -0.336
     13 C3         13.9120    9.6970   11.3560 C.3       1 SUB1        0.115
     14 O3         15.2420   10.0890   11.0820 O.3       1 SUB1       -0.386
     15 C2         13.6490    8.3420   12.1190 C.3       1 SUB1        0.139
     16 O2         14.6630    8.0620   13.1230 O.3       1 SUB1       -0.384
     17 C1         12.2250    8.4970   12.6970 C.3       1 SUB1        0.201
     18 N9         11.1080    7.8310   11.8270 N.pl3     1 SUB1       -0.192
     19 C8         11.0350    7.5720   10.4690 C.2       1 SUB1        0.112
     20 N7          9.8730    6.9750   10.1600 N.2       1 SUB1       -0.296
     21 C5          9.1910    6.8430   11.2990 C.ar      1 SUB1        0.105
     22 C6          7.8430    6.2510   11.5480 C.ar      1 SUB1        0.130
     23 N6          7.0110    5.7120   10.6370 N.pl3     1 SUB1       -0.315
     24 N1          7.3780    6.2580   12.9220 N.ar      1 SUB1       -0.270
     25 C2          8.1220    6.7850   14.0060 C.ar      1 SUB1        0.053
     26 N3          9.3920    7.3380   13.7380 N.ar      1 SUB1       -0.271
     27 C4          9.9540    7.3850   12.4130 C.ar      1 SUB1        0.161
     28 H          11.7673   12.1655   11.8575 H         1 SUB1        0.065
     29 H          13.4010   12.8039   12.3352 H         1 SUB1        0.065
     30 H          13.9306   10.9905   13.0759 H         1 SUB1        0.065
     31 H          13.5440    9.6248   10.3326 H         1 SUB1        0.065
     32 H          15.2405   10.9565   10.6707 H         1 SUB1        0.210
     33 H          13.7144    7.4746   11.4621 H         1 SUB1        0.068
     34 H          14.4600    7.2307   13.5581 H         1 SUB1        0.210
     35 H          12.1105    7.9943   13.6573 H         1 SUB1        0.100
     36 H          11.8149    7.8192    9.7487 H         1 SUB1        0.135
     37 H           7.2828    5.6793    9.6544 H         1 SUB1        0.182
     38 H           6.1089    5.3363   10.9294 H         1 SUB1        0.182
     39 H           7.7239    6.7639   15.0205 H         1 SUB1        0.100
@<TRIPOS>BOND
     1    1    2 2  
     2    1    3 2  
     3    1    4 2  
     4    8    1 1  
     5    5    6 2  
     6    5    7 2  
     7    5    8 1  
     8    5    9 1  
     9    9   10 1  
    10   10   11 1  
    11   11   12 1  
    12   11   13 1  
    13   12   17 1  
    14   13   14 1  
    15   13   15 1  
    16   15   16 1  
    17   15   17 1  
    18   17   18 1  
    19   18   19 1  
    20   18   27 1  
    21   19   20 2  
    22   20   21 1  
    23   21   22 ar 
    24   21   27 ar 
    25   22   23 1  
    26   22   24 ar 
    27   24   25 ar 
    28   25   26 ar 
    29   26   27 ar 
    30   10   28 1  
    31   10   29 1  
    32   11   30 1  
    33   13   31 1  
    34   14   32 1  
    35   15   33 1  
    36   16   34 1  
    37   17   35 1  
    38   19   36 1  
    39   23   37 1  
    40   23   38 1  
    41   25   39 1  
@<TRIPOS>SUBSTRUCTURE
     1 SUB1        1 GROUP

