2c02_ligand
  -I-interpret- 

 39 41  0  0  0  0  0  0  0  0999 V2000
   13.2450   14.5830    7.0130 P   0  0  0  0  0
   14.8210   14.7350    6.5590 O   0  5  0  0  0
   12.6990   15.7960    7.4900 O   0  0  0  0  0
   12.3660   13.9890    6.0000 O   0  5  0  0  0
   12.8750   13.6970    9.5600 P   0  0  0  0  0
   13.4860   14.8140   10.2580 O   0  0  0  0  0
   11.3940   13.8220    9.6560 O   0  5  0  0  0
   13.3020   13.5830    8.1350 O   0  0  0  0  0
   13.2040   12.2420   10.3010 O   0  0  0  0  0
   12.8480   12.0590   11.7630 C   0  0  0  0  0
   13.2280   10.6840   12.3010 C   0  0  0  0  0
   12.0780    9.9380   12.7490 O   0  0  0  0  0
   13.9120    9.6970   11.3560 C   0  0  0  0  0
   15.2420   10.0890   11.0820 O   0  0  0  0  0
   13.6490    8.3420   12.1190 C   0  0  0  0  0
   14.6630    8.0620   13.1230 O   0  0  0  0  0
   12.2250    8.4970   12.6970 C   0  0  0  0  0
   11.1080    7.8310   11.8270 N   0  0  0  0  0
   11.0350    7.5720   10.4690 C   0  0  0  0  0
    9.8730    6.9750   10.1600 N   0  0  0  0  0
    9.1910    6.8430   11.2990 C   0  0  0  0  0
    7.8430    6.2510   11.5480 C   0  0  0  0  0
    7.0110    5.7120   10.6370 N   0  0  0  0  0
    7.3780    6.2580   12.9220 N   0  0  0  0  0
    8.1220    6.7850   14.0060 C   0  0  0  0  0
    9.3920    7.3380   13.7380 N   0  0  0  0  0
    9.9540    7.3850   12.4130 C   0  0  0  0  0
   11.7673   12.1655   11.8575 H   0  0  0  0  0
   13.4010   12.8039   12.3352 H   0  0  0  0  0
   13.9306   10.9905   13.0759 H   0  0  0  0  0
   13.5440    9.6248   10.3326 H   0  0  0  0  0
   15.2405   10.9565   10.6707 H   0  0  0  0  0
   13.7144    7.4746   11.4621 H   0  0  0  0  0
   14.4600    7.2307   13.5581 H   0  0  0  0  0
   12.1105    7.9943   13.6573 H   0  0  0  0  0
   11.8149    7.8192    9.7487 H   0  0  0  0  0
    7.2828    5.6793    9.6544 H   0  0  0  0  0
    6.1089    5.3363   10.9294 H   0  0  0  0  0
    7.7239    6.7639   15.0205 H   0  0  0  0  0
  1  2  1  0  0  0
  1  3  2  0  0  0
  1  4  1  0  0  0
  8  1  1  0  0  0
  5  6  2  0  0  0
  5  7  1  0  0  0
  5  8  1  0  0  0
  5  9  1  0  0  0
  9 10  1  0  0  0
 10 11  1  0  0  0
 11 12  1  0  0  0
 11 13  1  0  0  0
 12 17  1  0  0  0
 13 14  1  0  0  0
 13 15  1  0  0  0
 15 16  1  0  0  0
 15 17  1  0  0  0
 17 18  1  0  0  0
 18 19  1  0  0  0
 18 27  1  0  0  0
 19 20  2  0  0  0
 20 21  1  0  0  0
 21 22  4  0  0  0
 21 27  4  0  0  0
 22 23  1  0  0  0
 22 24  4  0  0  0
 24 25  4  0  0  0
 25 26  4  0  0  0
 26 27  4  0  0  0
 10 28  1  0  0  0
 10 29  1  0  0  0
 11 30  1  0  0  0
 13 31  1  0  0  0
 14 32  1  0  0  0
 15 33  1  0  0  0
 16 34  1  0  0  0
 17 35  1  0  0  0
 19 36  1  0  0  0
 23 37  1  0  0  0
 23 38  1  0  0  0
 25 39  1  0  0  0
M  END
$$$$
