### 
### Created by X-TOOL on Mon Oct 24 21:55:21 2005
### 

@<TRIPOS>MOLECULE
1o2w_ligand
   42    44     1     0     0
SMALL
GAST_HUCK


@<TRIPOS>ATOM
      1 C1         44.0710   -2.9590   26.4710 C.ar      1 SUB1        0.171
      2 C2         44.4520   -1.5810   26.4460 C.ar      1 SUB1       -0.020
      3 C3         44.3730   -0.7600   27.5730 C.ar      1 SUB1       -0.036
      4 C4         43.9140   -1.3460   28.7220 C.ar      1 SUB1        0.081
      5 C5         43.5430   -2.6330   28.7990 C.ar      1 SUB1        0.034
      6 C6         43.5980   -3.4890   27.7060 C.ar      1 SUB1       -0.007
      7 C7         44.1750   -3.7460   25.3230 C.cat     1 SUB1        0.310
      8 N1         43.9530   -5.0330   25.4110 N.pl3     1 SUB1       -0.201
      9 N2         44.4890   -3.1740   24.1790 N.pl3     1 SUB1       -0.201
     10 N3         43.7440   -0.8520   29.8950 N.pl3     1 SUB1       -0.251
     11 N4         43.1360   -2.9770   30.0040 N.2       1 SUB1       -0.310
     12 C8         43.2930   -1.8190   30.6260 C.2       1 SUB1        0.136
     13 C1'        43.0220   -1.6460   32.0050 C.ar      1 SUB1        0.062
     14 C2'        42.5790   -2.7150   32.8110 C.ar      1 SUB1       -0.043
     15 C3'        42.3030   -2.5710   34.1780 C.ar      1 SUB1       -0.025
     16 C31'       41.7700   -3.8380   34.9550 C.3       1 SUB1        0.038
     17 C32'       40.2780   -4.0050   34.4620 C.2       1 SUB1        0.041
     18 O33'       40.0010   -4.9840   33.7930 O.co2     1 SUB1       -0.566
     19 O34'       39.4440   -3.1620   34.7340 O.co2     1 SUB1       -0.566
     20 C42'       41.9590   -3.7570   36.5780 C.3       1 SUB1        0.009
     21 C43'       42.9600   -4.8000   37.2550 C.2       1 SUB1        0.033
     22 O44'       43.1590   -5.9060   36.7880 O.co2     1 SUB1       -0.566
     23 O45'       43.5510   -4.4730   38.2740 O.co2     1 SUB1       -0.566
     24 C4'        42.4850   -1.3000   34.7560 C.ar      1 SUB1       -0.050
     25 C5'        42.9240   -0.2000   34.0050 C.ar      1 SUB1        0.042
     26 C6'        43.1830   -0.3900   32.6390 C.ar      1 SUB1        0.114
     27 O6'        43.5940    0.6950   31.9010 O.3       1 SUB1       -0.328
     28 BR5'       43.1810    1.5710   34.8510 Br        1 SUB1       -0.058
     29 H21        44.8180   -1.1430   25.5350 H         1 SUB1        0.059
     30 H31        44.6580    0.2780   27.5470 H         1 SUB1        0.055
     31 H61        43.2890   -4.5190   27.7980 H         1 SUB1        0.060
     32 H81        43.7100   -5.4180   26.3140 H         1 SUB1        0.192
     33 H82        43.9710   -5.6990   24.6710 H         1 SUB1        0.192
     34 H91        44.6260   -2.1740   24.1480 H         1 SUB1        0.192
     35 H92        44.6310   -3.6820   23.3330 H         1 SUB1        0.192
     36 H101       43.8990    0.0710   30.2120 H         1 SUB1        0.230
     37 H141       42.4480   -3.6920   32.3590 H         1 SUB1        0.060
     38 H161       42.3120   -4.7040   34.6050 H         1 SUB1        0.071
     39 H201       42.3320   -2.7770   36.8320 H         1 SUB1        0.054
     40 H202       40.9980   -3.8520   37.0600 H         1 SUB1        0.054
     41 H241       42.2790   -1.1480   35.8010 H         1 SUB1        0.060
     42 H271       43.7328    0.4292   30.9997 H         1 SUB1        0.252
@<TRIPOS>BOND
     1    1    2 ar 
     2    1    6 ar 
     3    1    7 1  
     4    2    3 ar 
     5    2   29 1  
     6    3    4 ar 
     7    3   30 1  
     8    4    5 ar 
     9    4   10 1  
    10    5    6 ar 
    11    5   11 1  
    12    6   31 1  
    13    7    8 1  
    14    7    9 1  
    15    8   32 1  
    16    8   33 1  
    17    9   34 1  
    18    9   35 1  
    19   10   12 1  
    20   10   36 1  
    21   11   12 2  
    22   12   13 1  
    23   13   14 ar 
    24   13   26 ar 
    25   14   15 ar 
    26   14   37 1  
    27   15   16 1  
    28   15   24 ar 
    29   16   17 1  
    30   16   20 1  
    31   16   38 1  
    32   17   18 2  
    33   17   19 2  
    34   20   21 1  
    35   20   39 1  
    36   20   40 1  
    37   21   22 2  
    38   21   23 2  
    39   24   25 ar 
    40   24   41 1  
    41   25   26 ar 
    42   25   28 1  
    43   26   27 1  
    44   27   42 1  
@<TRIPOS>SUBSTRUCTURE
     1 SUB1        1 GROUP

