1qbv_ligand
  -I-interpret- 

 57 59  0  0  0  0  0  0  0  0999 V2000
   16.6725  -17.8569   23.9615 H   0  0  0  0  0
   16.3722  -17.0851   22.5390 H   0  0  0  0  0
   15.8219  -16.4477   23.9534 H   0  0  0  0  0
   19.5743  -15.5686   25.3538 C   0  0  0  0  0
   18.6902  -16.7203   23.1977 H   0  0  0  0  0
   17.9960  -16.9081   25.7226 H   0  0  0  0  0
   17.4452  -15.2237   25.5816 H   0  0  0  0  0
   19.2741  -13.8823   26.6774 H   0  0  0  0  0
   20.2852  -17.4688   24.7772 H   0  0  0  0  0
   21.5151  -13.0206   26.4370 H   0  0  0  0  0
   22.7000  -16.7170   24.6582 H   0  0  0  0  0
   23.2836  -14.4727   25.5597 H   0  0  0  0  0
   19.2070  -15.9234   20.6896 H   0  0  0  0  0
   20.1021  -15.8636   22.2459 H   0  0  0  0  0
   18.4486  -12.2962   22.0476 H   0  0  0  0  0
   19.2510  -13.4030   19.3527 H   0  0  0  0  0
   16.5750  -16.9570   23.5180 N   0  3  0  0  0
   17.8510  -16.1860   23.6670 C   0  0  0  0  0
   18.1370  -15.9710   25.1610 C   0  0  0  0  0
   20.0863  -12.1774   20.3662 H   0  0  0  0  0
   19.9340  -14.3910   25.9840 C   0  0  0  0  0
   20.5860  -16.4500   24.9930 C   0  0  0  0  0
   21.2600  -13.9890   26.0220 C   0  0  0  0  0
   21.9240  -16.0560   25.0270 C   0  0  0  0  0
   22.2510  -14.8020   25.5410 C   0  0  0  0  0
   17.6040  -14.8370   22.9630 C   0  0  0  0  0
   16.5700  -14.2150   23.1900 O   0  0  0  0  0
   18.5200  -14.4270   22.0640 N   0  0  0  0  0
   19.5980  -15.2610   21.4760 C   0  0  0  0  0
   18.3790  -13.1430   21.3490 C   0  0  0  0  0
   19.5820  -13.1550   20.3720 C   0  0  0  0  0
   20.5100  -14.2340   20.9120 C   0  0  0  0  0
   17.0600  -13.0640   20.5960 C   0  0  0  0  0
   16.7200  -13.9660   19.8340 O   0  0  0  0  0
   16.3020  -11.9960   20.8110 N   0  0  0  0  0
   14.9960  -11.7850   20.1770 C   0  0  0  0  0
   14.0530  -11.0400   21.0760 C   0  0  0  0  0
   13.1720  -11.9830   21.6650 N   0  3  0  0  0
   12.3720  -11.6560   22.6740 C   0  0  0  0  0
   11.4520  -12.6130   23.0630 C   0  0  0  0  0
   10.6030  -12.3620   24.1440 C   0  0  0  0  0
   10.6820  -11.2130   24.8140 N   0  0  0  0  0
   11.5670  -10.2590   24.4560 C   0  0  0  0  0
   12.4380  -10.4570   23.3840 C   0  0  0  0  0
   21.1227  -14.6599   20.1038 H   0  0  0  0  0
   21.1670  -13.8259   21.6941 H   0  0  0  0  0
   16.6399  -11.2961   21.4402 H   0  0  0  0  0
   14.5566  -12.7634   19.9329 H   0  0  0  0  0
   15.1385  -11.2061   19.2526 H   0  0  0  0  0
   13.4784  -10.3078   20.4897 H   0  0  0  0  0
   14.6197  -10.5177   21.8609 H   0  0  0  0  0
   13.7480  -12.7417   21.9945 H   0  0  0  0  0
   12.5733  -12.3128   20.9241 H   0  0  0  0  0
   11.3899  -13.5552   22.5306 H   0  0  0  0  0
    9.8743  -13.1080   24.4399 H   0  0  0  0  0
   11.6016   -9.3269   25.0084 H   0  0  0  0  0
   13.1542   -9.6917   23.1075 H   0  0  0  0  0
  4 22  4  0  0  0
  4 21  4  0  0  0
 17  1  1  0  0  0
 19  4  1  0  0  0
 17  2  1  0  0  0
 17  3  1  0  0  0
 18  5  1  0  0  0
 19  6  1  0  0  0
 19  7  1  0  0  0
 21  8  1  0  0  0
 22  9  1  0  0  0
 23 10  1  0  0  0
 24 11  1  0  0  0
 25 12  1  0  0  0
 29 13  1  0  0  0
 29 14  1  0  0  0
 18 17  1  0  0  0
 26 18  1  0  0  0
 18 19  1  0  0  0
 30 15  1  0  0  0
 31 16  1  0  0  0
 31 20  1  0  0  0
 21 23  4  0  0  0
 23 25  4  0  0  0
 24 25  4  0  0  0
 22 24  4  0  0  0
 28 26  1  0  0  0
 26 27  2  0  0  0
 28 30  1  0  0  0
 29 28  1  0  0  0
 32 29  1  0  0  0
 32 31  1  0  0  0
 30 31  1  0  0  0
 30 33  1  0  0  0
 33 35  1  0  0  0
 33 34  2  0  0  0
 35 36  1  0  0  0
 36 37  1  0  0  0
 37 38  1  0  0  0
 38 39  1  0  0  0
 39 44  4  0  0  0
 39 40  4  0  0  0
 40 41  4  0  0  0
 41 42  4  0  0  0
 42 43  4  0  0  0
 44 43  4  0  0  0
 32 45  1  0  0  0
 32 46  1  0  0  0
 35 47  1  0  0  0
 36 48  1  0  0  0
 36 49  1  0  0  0
 37 50  1  0  0  0
 37 51  1  0  0  0
 38 52  1  0  0  0
 38 53  1  0  0  0
 40 54  1  0  0  0
 41 55  1  0  0  0
 43 56  1  0  0  0
 44 57  1  0  0  0
M  END
$$$$
