### 
### Created by X-TOOL on Mon Oct 24 22:41:23 2005
### 

@<TRIPOS>MOLECULE
1qbv_ligand
   57    59     1     0     0
SMALL
GAST_HUCK


@<TRIPOS>ATOM
      1 H171       16.6725  -17.8569   23.9615 H         1 SUB1        0.202
      2 H172       16.3722  -17.0851   22.5390 H         1 SUB1        0.202
      3 H173       15.8219  -16.4477   23.9534 H         1 SUB1        0.202
      4 C1         19.5743  -15.5686   25.3538 C.ar      1 SUB1       -0.035
      5 H181       18.6902  -16.7203   23.1977 H         1 SUB1        0.112
      6 H191       17.9960  -16.9081   25.7226 H         1 SUB1        0.051
      7 H192       17.4452  -15.2237   25.5816 H         1 SUB1        0.051
      8 H211       19.2741  -13.8823   26.6774 H         1 SUB1        0.056
      9 H221       20.2852  -17.4688   24.7772 H         1 SUB1        0.056
     10 H231       21.5151  -13.0206   26.4370 H         1 SUB1        0.060
     11 H241       22.7000  -16.7170   24.6582 H         1 SUB1        0.060
     12 H251       23.2836  -14.4727   25.5597 H         1 SUB1        0.056
     13 H291       19.2070  -15.9234   20.6896 H         1 SUB1        0.052
     14 H292       20.1021  -15.8636   22.2459 H         1 SUB1        0.052
     15 H301       18.4486  -12.2962   22.0476 H         1 SUB1        0.080
     16 H311       19.2510  -13.4030   19.3527 H         1 SUB1        0.031
     17 N1         16.5750  -16.9570   23.5180 N.4       1 SUB1        0.239
     18 C2         17.8510  -16.1860   23.6670 C.3       1 SUB1        0.075
     19 C3         18.1370  -15.9710   25.1610 C.3       1 SUB1        0.042
     20 H312       20.0863  -12.1774   20.3662 H         1 SUB1        0.031
     21 C5         19.9340  -14.3910   25.9840 C.ar      1 SUB1       -0.060
     22 C6         20.5860  -16.4500   24.9930 C.ar      1 SUB1       -0.060
     23 C7         21.2600  -13.9890   26.0220 C.ar      1 SUB1       -0.069
     24 C8         21.9240  -16.0560   25.0270 C.ar      1 SUB1       -0.069
     25 C9         22.2510  -14.8020   25.5410 C.ar      1 SUB1       -0.069
     26 C10        17.6040  -14.8370   22.9630 C.2       1 SUB1        0.231
     27 O11        16.5700  -14.2150   23.1900 O.2       1 SUB1       -0.390
     28 N12        18.5200  -14.4270   22.0640 N.am      1 SUB1       -0.247
     29 C13        19.5980  -15.2610   21.4760 C.3       1 SUB1        0.037
     30 C14        18.3790  -13.1430   21.3490 C.3       1 SUB1        0.134
     31 C15        19.5820  -13.1550   20.3720 C.3       1 SUB1       -0.010
     32 C16        20.5100  -14.2340   20.9120 C.3       1 SUB1       -0.028
     33 C17        17.0600  -13.0640   20.5960 C.2       1 SUB1        0.202
     34 O18        16.7200  -13.9660   19.8340 O.2       1 SUB1       -0.394
     35 N19        16.3020  -11.9960   20.8110 N.am      1 SUB1       -0.281
     36 C20        14.9960  -11.7850   20.1770 C.3       1 SUB1        0.064
     37 C30        14.0530  -11.0400   21.0760 C.3       1 SUB1       -0.013
     38 N27        13.1720  -11.9830   21.6650 N.4       1 SUB1        0.345
     39 C21        12.3720  -11.6560   22.6740 C.ar      1 SUB1        0.029
     40 C22        11.4520  -12.6130   23.0630 C.ar      1 SUB1        0.017
     41 C23        10.6030  -12.3620   24.1440 C.ar      1 SUB1        0.023
     42 N24        10.6820  -11.2130   24.8140 N.ar      1 SUB1       -0.290
     43 C25        11.5670  -10.2590   24.4560 C.ar      1 SUB1        0.023
     44 C26        12.4380  -10.4570   23.3840 C.ar      1 SUB1        0.017
     45 H321       21.1227  -14.6599   20.1038 H         1 SUB1        0.029
     46 H322       21.1670  -13.8259   21.6941 H         1 SUB1        0.029
     47 H351       16.6399  -11.2961   21.4402 H         1 SUB1        0.185
     48 H361       14.5566  -12.7634   19.9329 H         1 SUB1        0.056
     49 H362       15.1385  -11.2061   19.2526 H         1 SUB1        0.056
     50 H371       13.4784  -10.3078   20.4897 H         1 SUB1        0.074
     51 H372       14.6197  -10.5177   21.8609 H         1 SUB1        0.074
     52 H381       13.7480  -12.7417   21.9945 H         1 SUB1        0.175
     53 H382       12.5733  -12.3128   20.9241 H         1 SUB1        0.175
     54 H401       11.3899  -13.5552   22.5306 H         1 SUB1        0.082
     55 H411        9.8743  -13.1080   24.4399 H         1 SUB1        0.084
     56 H431       11.6016   -9.3269   25.0084 H         1 SUB1        0.084
     57 H441       13.1542   -9.6917   23.1075 H         1 SUB1        0.082
@<TRIPOS>BOND
     1    4   22 ar 
     2    4   21 ar 
     3   17    1 1  
     4   19    4 1  
     5   17    2 1  
     6   17    3 1  
     7   18    5 1  
     8   19    6 1  
     9   19    7 1  
    10   21    8 1  
    11   22    9 1  
    12   23   10 1  
    13   24   11 1  
    14   25   12 1  
    15   29   13 1  
    16   29   14 1  
    17   18   17 1  
    18   26   18 1  
    19   18   19 1  
    20   30   15 1  
    21   31   16 1  
    22   31   20 1  
    23   21   23 ar 
    24   23   25 ar 
    25   24   25 ar 
    26   22   24 ar 
    27   28   26 am 
    28   26   27 2  
    29   28   30 1  
    30   29   28 1  
    31   32   29 1  
    32   32   31 1  
    33   30   31 1  
    34   30   33 1  
    35   33   35 am 
    36   33   34 2  
    37   35   36 1  
    38   36   37 1  
    39   37   38 1  
    40   38   39 1  
    41   39   44 ar 
    42   39   40 ar 
    43   40   41 ar 
    44   41   42 ar 
    45   42   43 ar 
    46   44   43 ar 
    47   32   45 1  
    48   32   46 1  
    49   35   47 1  
    50   36   48 1  
    51   36   49 1  
    52   37   50 1  
    53   37   51 1  
    54   38   52 1  
    55   38   53 1  
    56   40   54 1  
    57   41   55 1  
    58   43   56 1  
    59   44   57 1  
@<TRIPOS>SUBSTRUCTURE
     1 SUB1        1 GROUP

