1e6s_ligand
  -I-interpret- 

 25 25  0  0  0  0  0  0  0  0999 V2000
   46.8710  119.8910   52.8440 C   0  0  0  0  0
   46.1800  119.1010   52.0130 N   0  0  0  0  0
   45.5120  119.5680   50.9830 O   0  0  0  0  0
   47.7520  119.2200   53.9100 C   0  0  0  0  0
   47.1990  118.0540   54.5300 O   0  0  0  0  0
   48.2490  120.2590   54.8890 C   0  0  0  0  0
   49.3470  119.6490   55.5640 O   0  0  0  0  0
   48.6480  121.5070   54.0620 C   0  0  0  0  0
   49.2900  122.4630   54.9070 O   0  0  0  0  0
   47.3120  122.1730   53.5720 C   0  0  0  0  0
   46.7140  121.2240   52.6400 N   0  0  0  0  0
   47.4060  123.4560   52.7730 C   0  0  0  0  0
   48.1870  123.2780   51.5780 O   0  0  0  0  0
   45.0942  118.8480   50.5251 H   0  0  0  0  0
   48.6500  118.8668   53.3820 H   0  0  0  0  0
   47.8143  117.7147   55.1694 H   0  0  0  0  0
   47.4682  120.5445   55.6093 H   0  0  0  0  0
   49.0473  118.8656   56.0101 H   0  0  0  0  0
   49.2859  121.2338   53.2085 H   0  0  0  0  0
   50.0696  122.0751   55.2870 H   0  0  0  0  0
   46.6640  122.3571   54.4416 H   0  0  0  0  0
   47.1297  121.4505   51.6693 H   0  0  0  0  0
   46.3954  123.7780   52.4817 H   0  0  0  0  0
   47.8846  124.2328   53.3873 H   0  0  0  0  0
   48.2261  124.0988   51.1014 H   0  0  0  0  0
  1  2  2  0  0  0
  1  4  1  0  0  0
  1 11  1  0  0  0
  2  3  1  0  0  0
  4  5  1  0  0  0
  4  6  1  0  0  0
  6  7  1  0  0  0
  6  8  1  0  0  0
  8  9  1  0  0  0
  8 10  1  0  0  0
 10 11  1  0  0  0
 10 12  1  0  0  0
 12 13  1  0  0  0
  3 14  1  0  0  0
  4 15  1  0  0  0
  5 16  1  0  0  0
  6 17  1  0  0  0
  7 18  1  0  0  0
  8 19  1  0  0  0
  9 20  1  0  0  0
 10 21  1  0  0  0
 11 22  1  0  0  0
 12 23  1  0  0  0
 12 24  1  0  0  0
 13 25  1  0  0  0
M  END
$$$$
