### 
### Created by X-TOOL on Mon Oct 24 21:54:27 2005
### 

@<TRIPOS>MOLECULE
1e6s_ligand
   25    25     1     0     0
SMALL
GAST_HUCK


@<TRIPOS>ATOM
      1 C1         46.8710  119.8910   52.8440 C.2       1 SUB1        0.121
      2 N1         46.1800  119.1010   52.0130 N.2       1 SUB1       -0.208
      3 O7         45.5120  119.5680   50.9830 O.3       1 SUB1       -0.303
      4 C2         47.7520  119.2200   53.9100 C.3       1 SUB1        0.147
      5 O2         47.1990  118.0540   54.5300 O.3       1 SUB1       -0.372
      6 C3         48.2490  120.2590   54.8890 C.3       1 SUB1        0.123
      7 O3         49.3470  119.6490   55.5640 O.3       1 SUB1       -0.384
      8 C4         48.6480  121.5070   54.0620 C.3       1 SUB1        0.107
      9 O4         49.2900  122.4630   54.9070 O.3       1 SUB1       -0.387
     10 C5         47.3120  122.1730   53.5720 C.3       1 SUB1        0.081
     11 N5         46.7140  121.2240   52.6400 N.3       1 SUB1       -0.242
     12 C6         47.4060  123.4560   52.7730 C.3       1 SUB1        0.066
     13 O6         48.1870  123.2780   51.5780 O.3       1 SUB1       -0.393
     14 H31        45.0942  118.8480   50.5251 H         1 SUB1        0.253
     15 H41        48.6500  118.8668   53.3820 H         1 SUB1        0.084
     16 H51        47.8143  117.7147   55.1694 H         1 SUB1        0.214
     17 H61        47.4682  120.5445   55.6093 H         1 SUB1        0.067
     18 H71        49.0473  118.8656   56.0101 H         1 SUB1        0.210
     19 H81        49.2859  121.2338   53.2085 H         1 SUB1        0.064
     20 H91        50.0696  122.0751   55.2870 H         1 SUB1        0.210
     21 H101       46.6640  122.3571   54.4416 H         1 SUB1        0.056
     22 H111       47.1297  121.4505   51.6693 H         1 SUB1        0.161
     23 H121       46.3954  123.7780   52.4817 H         1 SUB1        0.058
     24 H122       47.8846  124.2328   53.3873 H         1 SUB1        0.058
     25 H131       48.2261  124.0988   51.1014 H         1 SUB1        0.209
@<TRIPOS>BOND
     1    1    2 2  
     2    1    4 1  
     3    1   11 1  
     4    2    3 1  
     5    4    5 1  
     6    4    6 1  
     7    6    7 1  
     8    6    8 1  
     9    8    9 1  
    10    8   10 1  
    11   10   11 1  
    12   10   12 1  
    13   12   13 1  
    14    3   14 1  
    15    4   15 1  
    16    5   16 1  
    17    6   17 1  
    18    7   18 1  
    19    8   19 1  
    20    9   20 1  
    21   10   21 1  
    22   11   22 1  
    23   12   23 1  
    24   12   24 1  
    25   13   25 1  
@<TRIPOS>SUBSTRUCTURE
     1 SUB1        1 GROUP

