1nfw_ligand
  -I-interpret- 

 45 48  0  0  0  0  0  0  0  0999 V2000
    5.8400    2.2970   18.8420 N   0  0  0  0  0
    6.9690    1.6440   18.3920 C   0  0  0  0  0
    7.9620    1.7500   19.4420 C   0  0  0  0  0
    9.2320    1.1400   19.2150 C   0  0  0  0  0
    9.4680    0.4910   18.0400 N   0  0  0  0  0
    8.5580    0.3770   17.0370 C   0  0  0  0  0
    7.2600    0.9560   17.1760 C   0  0  0  0  0
    7.3950    2.4730   20.5110 C   0  0  0  0  0
    6.0840    2.7840   20.0830 C   0  0  0  0  0
    4.9980    3.5390   20.8340 C   0  0  0  0  0
    5.3160    4.8270   21.4730 N   0  0  0  0  0
    4.9700    5.0200   22.7950 C   0  0  0  0  0
    4.4150    4.1690   23.4860 O   0  0  0  0  0
    5.3100    6.4010   23.3890 C   0  0  0  0  0
    5.9100    7.4130   22.3900 N   0  0  0  0  0
    6.6760    6.9350   21.4420 C   0  0  0  0  0
    5.9840    5.8360   20.6150 C   0  0  0  0  0
    6.6310    8.7910   23.3900 S   0  0  0  0  0
    5.6960    8.9380   24.4770 O   0  0  0  0  0
    6.5960    9.6640   22.2590 O   0  0  0  0  0
    8.2550    8.6880   23.9880 C   0  0  0  0  0
    8.4570    7.9600   25.0920 C   0  0  0  0  0
    9.7590    7.6910   25.7070 C   0  0  0  0  0
    9.8480    6.9000   26.9160 C   0  0  0  0  0
   11.1980    6.7250   27.3460 C   0  0  0  0  0
   12.1220    7.3870   26.4530 C   0  0  0  0  0
   13.8300    7.3370   26.6850 Cl  0  0  0  0  0
   11.3150    8.1930   25.1540 S   0  0  0  0  0
    4.9573    2.3978   18.3208 H   0  0  0  0  0
   10.0050    1.1926   19.9732 H   0  0  0  0  0
    8.8182   -0.1549   16.1290 H   0  0  0  0  0
    6.5221    0.8758   16.3860 H   0  0  0  0  0
    7.8639    2.7346   21.4585 H   0  0  0  0  0
    4.1869    3.7413   20.1190 H   0  0  0  0  0
    4.6355    2.8783   21.6353 H   0  0  0  0  0
    4.3869    6.8429   23.7922 H   0  0  0  0  0
    6.0428    6.2610   24.1972 H   0  0  0  0  0
    6.9533    7.7517   20.7594 H   0  0  0  0  0
    7.5798    6.5022   21.8956 H   0  0  0  0  0
    6.7470    5.3377   19.9990 H   0  0  0  0  0
    5.2333    6.3138   19.9684 H   0  0  0  0  0
    9.0772    9.1953   23.4854 H   0  0  0  0  0
    7.5797    7.5313   25.5741 H   0  0  0  0  0
    8.9856    6.4866   27.4369 H   0  0  0  0  0
   11.4935    6.1652   28.2321 H   0  0  0  0  0
  1  2  1  0  0  0
  1  9  1  0  0  0
  2  3  4  0  0  0
  2  7  4  0  0  0
  3  4  4  0  0  0
  3  8  1  0  0  0
  4  5  4  0  0  0
  5  6  4  0  0  0
  6  7  4  0  0  0
  8  9  2  0  0  0
  9 10  1  0  0  0
 10 11  1  0  0  0
 11 12  1  0  0  0
 11 17  1  0  0  0
 12 13  2  0  0  0
 12 14  1  0  0  0
 14 15  1  0  0  0
 15 16  1  0  0  0
 15 18  1  0  0  0
 16 17  1  0  0  0
 18 19  2  0  0  0
 18 20  2  0  0  0
 18 21  1  0  0  0
 21 22  2  0  0  0
 22 23  1  0  0  0
 23 24  2  0  0  0
 23 28  1  0  0  0
 24 25  1  0  0  0
 25 26  2  0  0  0
 26 27  1  0  0  0
 26 28  1  0  0  0
  1 29  1  0  0  0
  4 30  1  0  0  0
  6 31  1  0  0  0
  7 32  1  0  0  0
  8 33  1  0  0  0
 10 34  1  0  0  0
 10 35  1  0  0  0
 14 36  1  0  0  0
 14 37  1  0  0  0
 16 38  1  0  0  0
 16 39  1  0  0  0
 17 40  1  0  0  0
 17 41  1  0  0  0
 21 42  1  0  0  0
 22 43  1  0  0  0
 24 44  1  0  0  0
 25 45  1  0  0  0
M  END
$$$$
