### 
### Created by X-TOOL on Tue Oct 25 00:59:01 2005
### 

@<TRIPOS>MOLECULE
1nfw_ligand
   45    48     1     0     0
SMALL
GAST_HUCK


@<TRIPOS>ATOM
      1 N10         5.8400    2.2970   18.8420 N.pl3     1 SUB1       -0.263
      2 C4          6.9690    1.6440   18.3920 C.ar      1 SUB1        0.077
      3 C5          7.9620    1.7500   19.4420 C.ar      1 SUB1       -0.011
      4 C6          9.2320    1.1400   19.2150 C.ar      1 SUB1       -0.009
      5 N1          9.4680    0.4910   18.0400 N.ar      1 SUB1       -0.324
      6 C2          8.5580    0.3770   17.0370 C.ar      1 SUB1       -0.011
      7 C3          7.2600    0.9560   17.1760 C.ar      1 SUB1       -0.022
      8 C12         7.3950    2.4730   20.5110 C.2       1 SUB1       -0.056
      9 C11         6.0840    2.7840   20.0830 C.2       1 SUB1        0.070
     10 C13         4.9980    3.5390   20.8340 C.3       1 SUB1        0.094
     11 N14         5.3160    4.8270   21.4730 N.am      1 SUB1       -0.255
     12 C17         4.9700    5.0200   22.7950 C.2       1 SUB1        0.200
     13 O44         4.4150    4.1690   23.4860 O.2       1 SUB1       -0.395
     14 C18         5.3100    6.4010   23.3890 C.3       1 SUB1        0.119
     15 N19         5.9100    7.4130   22.3900 N.am      1 SUB1       -0.215
     16 C20         6.6760    6.9350   21.4420 C.3       1 SUB1        0.053
     17 C21         5.9840    5.8360   20.6150 C.3       1 SUB1        0.054
     18 S28         6.6310    8.7910   23.3900 S.o2      1 SUB1        0.062
     19 O37         5.6960    8.9380   24.4770 O.2       1 SUB1       -0.152
     20 O45         6.5960    9.6640   22.2590 O.2       1 SUB1       -0.152
     21 C29         8.2550    8.6880   23.9880 C.2       1 SUB1        0.067
     22 C30         8.4570    7.9600   25.0920 C.2       1 SUB1       -0.031
     23 C31         9.7590    7.6910   25.7070 C.2       1 SUB1        0.029
     24 C35         9.8480    6.9000   26.9160 C.2       1 SUB1       -0.066
     25 C34        11.1980    6.7250   27.3460 C.2       1 SUB1       -0.058
     26 C33        12.1220    7.3870   26.4530 C.2       1 SUB1        0.097
     27 CL36       13.8300    7.3370   26.6850 Cl        1 SUB1       -0.054
     28 S32        11.3150    8.1930   25.1540 S.3       1 SUB1       -0.026
     29 H11         4.9573    2.3978   18.3208 H         1 SUB1        0.230
     30 H41        10.0050    1.1926   19.9732 H         1 SUB1        0.072
     31 H61         8.8182   -0.1549   16.1290 H         1 SUB1        0.068
     32 H71         6.5221    0.8758   16.3860 H         1 SUB1        0.062
     33 H81         7.8639    2.7346   21.4585 H         1 SUB1        0.019
     34 H101        4.1869    3.7413   20.1190 H         1 SUB1        0.074
     35 H102        4.6355    2.8783   21.6353 H         1 SUB1        0.074
     36 H141        4.3869    6.8429   23.7922 H         1 SUB1        0.072
     37 H142        6.0428    6.2610   24.1972 H         1 SUB1        0.072
     38 H161        6.9533    7.7517   20.7594 H         1 SUB1        0.050
     39 H162        7.5798    6.5022   21.8956 H         1 SUB1        0.050
     40 H171        6.7470    5.3377   19.9990 H         1 SUB1        0.054
     41 H172        5.2333    6.3138   19.9684 H         1 SUB1        0.054
     42 H211        9.0772    9.1953   23.4854 H         1 SUB1        0.077
     43 H221        7.5797    7.5313   25.5741 H         1 SUB1        0.062
     44 H241        8.9856    6.4866   27.4369 H         1 SUB1        0.046
     45 H251       11.4935    6.1652   28.2321 H         1 SUB1        0.044
@<TRIPOS>BOND
     1    1    2 1  
     2    1    9 1  
     3    2    3 ar 
     4    2    7 ar 
     5    3    4 ar 
     6    3    8 1  
     7    4    5 ar 
     8    5    6 ar 
     9    6    7 ar 
    10    8    9 2  
    11    9   10 1  
    12   10   11 1  
    13   11   12 am 
    14   11   17 1  
    15   12   13 2  
    16   12   14 1  
    17   14   15 1  
    18   15   16 1  
    19   15   18 am 
    20   16   17 1  
    21   18   19 2  
    22   18   20 2  
    23   18   21 1  
    24   21   22 2  
    25   22   23 1  
    26   23   24 2  
    27   23   28 1  
    28   24   25 1  
    29   25   26 2  
    30   26   27 1  
    31   26   28 1  
    32    1   29 1  
    33    4   30 1  
    34    6   31 1  
    35    7   32 1  
    36    8   33 1  
    37   10   34 1  
    38   10   35 1  
    39   14   36 1  
    40   14   37 1  
    41   16   38 1  
    42   16   39 1  
    43   17   40 1  
    44   17   41 1  
    45   21   42 1  
    46   22   43 1  
    47   24   44 1  
    48   25   45 1  
@<TRIPOS>SUBSTRUCTURE
     1 SUB1        1 GROUP

