1nvr_ligand
  -I-interpret- 

 62 69  0  0  0  0  0  0  0  0999 V2000
    2.2725    3.9061   17.8153 H   0  0  0  0  0
    1.1761    4.0236   15.7789 H   0  0  0  0  0
    1.9553    5.6170   15.4646 H   0  0  0  0  0
    3.0647    2.8404   14.7264 H   0  0  0  0  0
    4.9710    4.2463   13.6261 H   0  0  0  0  0
    6.4268    2.7656   14.8242 H   0  0  0  0  0
    6.1681    2.3322   16.5427 H   0  0  0  0  0
    4.9008    1.9672   15.3157 H   0  0  0  0  0
    8.0327    3.6886   14.7071 H   0  0  0  0  0
   10.3418    4.5009   14.4477 H   0  0  0  0  0
   11.1051    6.6624   15.5820 H   0  0  0  0  0
    9.4261    7.9034   16.9956 H   0  0  0  0  0
    8.3460    8.8926   19.1094 H   0  0  0  0  0
    7.8935    9.8124   17.6282 H   0  0  0  0  0
    6.9960   10.9923   19.7271 H   0  0  0  0  0
    0.3436    5.3532   18.0033 H   0  0  0  0  0
   -1.0357    6.9055   19.4064 H   0  0  0  0  0
    0.0075    8.9433   20.4556 H   0  0  0  0  0
    2.4066    9.4310   20.1323 H   0  0  0  0  0
    4.9935    7.7468   13.8004 H   0  0  0  0  0
    6.1814    6.4503   14.1406 H   0  0  0  0  0
    5.1012    6.3349   12.7037 H   0  0  0  0  0
    1.2585    3.7468   13.2720 H   0  0  0  0  0
    2.0967    5.1469   13.0231 H   0  0  0  0  0
    2.3722    3.6731   11.1350 H   0  0  0  0  0
    3.9272    3.9540   11.9782 H   0  0  0  0  0
    3.0125    2.4261   12.2498 H   0  0  0  0  0
    4.1090    3.8420   16.8980 O   0  0  0  0  0
    2.8780    4.4680   17.0890 C   0  0  0  0  0
    2.1340    4.5600   15.7110 C   0  0  0  0  0
    2.9710    3.9240   14.5620 C   0  0  0  0  0
    4.3910    4.5500   14.5100 C   0  0  0  0  0
    5.0460    4.0680   15.8630 C   0  0  0  0  0
    5.6760    2.6840   15.6240 C   0  0  0  0  0
    6.0370    5.1320   16.2960 N   0  0  0  0  0
    5.5620    6.2030   17.1420 C   0  0  0  0  0
    4.3440    6.4920   17.6880 C   0  0  0  0  0
    4.1150    7.6680   18.5110 C   0  0  0  0  0
    5.3020    8.5120   18.7060 C   0  0  0  0  0
    6.4950    8.2250   18.1650 C   0  0  0  0  0
    6.7090    7.0610   17.3510 C   0  0  0  0  0
    7.8090    6.5300   16.6450 C   0  0  0  0  0
    7.4000    5.3150   15.9840 C   0  0  0  0  0
    8.3350    4.6050   15.2010 C   0  0  0  0  0
    9.6440    5.0670   15.0540 C   0  0  0  0  0
   10.0920    6.2950   15.6990 C   0  0  0  0  0
    9.1290    6.9900   16.4930 C   0  0  0  0  0
    7.5090    9.2890   18.5160 C   0  0  0  0  0
    6.6460   10.1510   19.3150 N   0  0  0  0  0
    5.3800    9.7830   19.4780 C   0  0  0  0  0
    4.4950   10.3560   20.1050 O   0  0  0  0  0
    2.7840    7.6920   18.8930 C   0  0  0  0  0
    2.1730    6.5290   18.2940 C   0  0  0  0  0
    0.7880    6.2280   18.4640 C   0  0  0  0  0
    0.0180    7.1080   19.2520 C   0  0  0  0  0
    0.6160    8.2760   19.8560 C   0  0  0  0  0
    1.9710    8.5510   19.6730 C   0  0  0  0  0
    3.1040    5.8480   17.6020 N   0  0  0  0  0
    4.2020    5.9960   14.5360 O   0  0  0  0  0
    5.1750    6.6630   13.7510 C   0  0  0  0  0
    2.1760    4.1590   13.2070 N   0  3  0  0  0
    2.9260    3.5080   12.0710 C   0  0  0  0  0
 29  1  1  0  0  0
 30  2  1  0  0  0
 30  3  1  0  0  0
 31  4  1  0  0  0
 32  5  1  0  0  0
 34  6  1  0  0  0
 34  7  1  0  0  0
 34  8  1  0  0  0
 44  9  1  0  0  0
 45 10  1  0  0  0
 46 11  1  0  0  0
 47 12  1  0  0  0
 48 13  1  0  0  0
 48 14  1  0  0  0
 49 15  1  0  0  0
 54 16  1  0  0  0
 55 17  1  0  0  0
 56 18  1  0  0  0
 57 19  1  0  0  0
 60 20  1  0  0  0
 60 21  1  0  0  0
 60 22  1  0  0  0
 61 23  1  0  0  0
 61 24  1  0  0  0
 62 25  1  0  0  0
 62 26  1  0  0  0
 62 27  1  0  0  0
 29 28  1  0  0  0
 33 28  1  0  0  0
 30 29  1  0  0  0
 29 58  1  0  0  0
 31 30  1  0  0  0
 31 32  1  0  0  0
 61 31  1  0  0  0
 32 33  1  0  0  0
 32 59  1  0  0  0
 33 34  1  0  0  0
 33 35  1  0  0  0
 35 36  1  0  0  0
 35 43  1  0  0  0
 36 37  4  0  0  0
 36 41  4  0  0  0
 37 38  4  0  0  0
 58 37  1  0  0  0
 38 39  4  0  0  0
 52 38  4  0  0  0
 40 39  4  0  0  0
 39 50  1  0  0  0
 41 40  4  0  0  0
 40 48  1  0  0  0
 42 41  4  0  0  0
 43 42  4  0  0  0
 42 47  4  0  0  0
 43 44  4  0  0  0
 44 45  4  0  0  0
 45 46  4  0  0  0
 47 46  4  0  0  0
 48 49  1  0  0  0
 50 49  1  0  0  0
 50 51  2  0  0  0
 53 52  4  0  0  0
 52 57  4  0  0  0
 53 54  4  0  0  0
 58 53  1  0  0  0
 54 55  4  0  0  0
 55 56  4  0  0  0
 57 56  4  0  0  0
 59 60  1  0  0  0
 61 62  1  0  0  0
M  END
$$$$
