### 
### Created by X-TOOL on Mon Oct 24 22:47:54 2005
### 

@<TRIPOS>MOLECULE
1nvr_ligand
   62    69     1     0     0
SMALL
GAST_HUCK


@<TRIPOS>ATOM
      1 H291        2.2725    3.9061   17.8153 H         1 SUB1        0.094
      2 H301        1.1761    4.0236   15.7789 H         1 SUB1        0.037
      3 H302        1.9553    5.6170   15.4646 H         1 SUB1        0.037
      4 H311        3.0647    2.8404   14.7264 H         1 SUB1        0.088
      5 H321        4.9710    4.2463   13.6261 H         1 SUB1        0.071
      6 H341        6.4268    2.7656   14.8242 H         1 SUB1        0.029
      7 H342        6.1681    2.3322   16.5427 H         1 SUB1        0.029
      8 H343        4.9008    1.9672   15.3157 H         1 SUB1        0.029
      9 H441        8.0327    3.6886   14.7071 H         1 SUB1        0.054
     10 H451       10.3418    4.5009   14.4477 H         1 SUB1        0.056
     11 H461       11.1051    6.6624   15.5820 H         1 SUB1        0.052
     12 H471        9.4261    7.9034   16.9956 H         1 SUB1        0.056
     13 H481        8.3460    8.8926   19.1094 H         1 SUB1        0.068
     14 H482        7.8935    9.8124   17.6282 H         1 SUB1        0.068
     15 H491        6.9960   10.9923   19.7271 H         1 SUB1        0.186
     16 H541        0.3436    5.3532   18.0033 H         1 SUB1        0.054
     17 H551       -1.0357    6.9055   19.4064 H         1 SUB1        0.056
     18 H561        0.0075    8.9433   20.4556 H         1 SUB1        0.052
     19 H571        2.4066    9.4310   20.1323 H         1 SUB1        0.057
     20 H601        4.9935    7.7468   13.8004 H         1 SUB1        0.052
     21 H602        6.1814    6.4503   14.1406 H         1 SUB1        0.052
     22 H603        5.1012    6.3349   12.7037 H         1 SUB1        0.052
     23 H611        1.2585    3.7468   13.2720 H         1 SUB1        0.201
     24 H612        2.0967    5.1469   13.0231 H         1 SUB1        0.201
     25 H621        2.3722    3.6731   11.1350 H         1 SUB1        0.078
     26 H622        3.9272    3.9540   11.9782 H         1 SUB1        0.078
     27 H623        3.0125    2.4261   12.2498 H         1 SUB1        0.078
     28 O4          4.1090    3.8420   16.8980 O.3       1 SUB1       -0.315
     29 C25         2.8780    4.4680   17.0890 C.3       1 SUB1        0.167
     30 C24         2.1340    4.5600   15.7110 C.3       1 SUB1        0.046
     31 C23         2.9710    3.9240   14.5620 C.3       1 SUB1        0.014
     32 C22         4.3910    4.5500   14.5100 C.3       1 SUB1        0.156
     33 C21         5.0460    4.0680   15.8630 C.3       1 SUB1        0.202
     34 C26         5.6760    2.6840   15.6240 C.3       1 SUB1       -0.006
     35 N2          6.0370    5.1320   16.2960 N.pl3     1 SUB1       -0.229
     36 C18         5.5620    6.2030   17.1420 C.ar      1 SUB1        0.098
     37 C19         4.3440    6.4920   17.6880 C.ar      1 SUB1        0.096
     38 C6          4.1150    7.6680   18.5110 C.ar      1 SUB1       -0.002
     39 C7          5.3020    8.5120   18.7060 C.ar      1 SUB1        0.032
     40 C10         6.4950    8.2250   18.1650 C.ar      1 SUB1       -0.017
     41 C11         6.7090    7.0610   17.3510 C.ar      1 SUB1        0.002
     42 C12         7.8090    6.5300   16.6450 C.ar      1 SUB1       -0.007
     43 C17         7.4000    5.3150   15.9840 C.ar      1 SUB1        0.070
     44 C16         8.3350    4.6050   15.2010 C.ar      1 SUB1       -0.041
     45 C15         9.6440    5.0670   15.0540 C.ar      1 SUB1       -0.074
     46 C14        10.0920    6.2950   15.6990 C.ar      1 SUB1       -0.076
     47 C13         9.1290    6.9900   16.4930 C.ar      1 SUB1       -0.070
     48 C9          7.5090    9.2890   18.5160 C.3       1 SUB1        0.060
     49 N1          6.6460   10.1510   19.3150 N.am      1 SUB1       -0.279
     50 C8          5.3800    9.7830   19.4780 C.2       1 SUB1        0.187
     51 O5          4.4950   10.3560   20.1050 O.2       1 SUB1       -0.397
     52 C5          2.7840    7.6920   18.8930 C.ar      1 SUB1       -0.007
     53 C20         2.1730    6.5290   18.2940 C.ar      1 SUB1        0.068
     54 C1          0.7880    6.2280   18.4640 C.ar      1 SUB1       -0.041
     55 C2          0.0180    7.1080   19.2520 C.ar      1 SUB1       -0.073
     56 C3          0.6160    8.2760   19.8560 C.ar      1 SUB1       -0.075
     57 C4          1.9710    8.5510   19.6730 C.ar      1 SUB1       -0.069
     58 N3          3.1040    5.8480   17.6020 N.pl3     1 SUB1       -0.237
     59 O6          4.2020    5.9960   14.5360 O.3       1 SUB1       -0.369
     60 C27         5.1750    6.6630   13.7510 C.3       1 SUB1        0.037
     61 N4          2.1760    4.1590   13.2070 N.4       1 SUB1        0.229
     62 C28         2.9260    3.5080   12.0710 C.3       1 SUB1       -0.045
@<TRIPOS>BOND
     1   29    1 1  
     2   30    2 1  
     3   30    3 1  
     4   31    4 1  
     5   32    5 1  
     6   34    6 1  
     7   34    7 1  
     8   34    8 1  
     9   44    9 1  
    10   45   10 1  
    11   46   11 1  
    12   47   12 1  
    13   48   13 1  
    14   48   14 1  
    15   49   15 1  
    16   54   16 1  
    17   55   17 1  
    18   56   18 1  
    19   57   19 1  
    20   60   20 1  
    21   60   21 1  
    22   60   22 1  
    23   61   23 1  
    24   61   24 1  
    25   62   25 1  
    26   62   26 1  
    27   62   27 1  
    28   29   28 1  
    29   33   28 1  
    30   30   29 1  
    31   29   58 1  
    32   31   30 1  
    33   31   32 1  
    34   61   31 1  
    35   32   33 1  
    36   32   59 1  
    37   33   34 1  
    38   33   35 1  
    39   35   36 1  
    40   35   43 1  
    41   36   37 ar 
    42   36   41 ar 
    43   37   38 ar 
    44   58   37 1  
    45   38   39 ar 
    46   52   38 ar 
    47   40   39 ar 
    48   39   50 1  
    49   41   40 ar 
    50   40   48 1  
    51   42   41 ar 
    52   43   42 ar 
    53   42   47 ar 
    54   43   44 ar 
    55   44   45 ar 
    56   45   46 ar 
    57   47   46 ar 
    58   48   49 1  
    59   50   49 am 
    60   50   51 2  
    61   53   52 ar 
    62   52   57 ar 
    63   53   54 ar 
    64   58   53 1  
    65   54   55 ar 
    66   55   56 ar 
    67   57   56 ar 
    68   59   60 1  
    69   61   62 1  
@<TRIPOS>SUBSTRUCTURE
     1 SUB1        1 GROUP

