### 
### Created by X-TOOL on Mon Oct 24 23:21:29 2005
### 

@<TRIPOS>MOLECULE
1g53_ligand
   34    35     1     0     0
SMALL
GAST_HUCK


@<TRIPOS>ATOM
      1 H31        -2.7389    3.4964   14.3409 H         1 SUB1        0.067
      2 H41        -3.4381    1.5466   15.6894 H         1 SUB1        0.065
      3 C01        -3.7680    3.4250   14.6740 C.ar      1 SUB1       -0.040
      4 C02        -4.1570    2.3160   15.4320 C.ar      1 SUB1       -0.030
      5 C03        -5.5080    2.2120   15.8600 C.ar      1 SUB1        0.112
      6 C04        -6.3880    3.2440   15.5080 C.ar      1 SUB1       -0.030
      7 C05        -5.9630    4.3370   14.7630 C.ar      1 SUB1       -0.040
      8 C06        -4.6610    4.4450   14.3310 C.ar      1 SUB1        0.050
      9 C07        -4.2310    5.6510   13.4910 C.2       1 SUB1        0.207
     10 O08        -5.1200    6.4610   13.2620 O.2       1 SUB1       -0.384
     11 N09        -2.9350    5.9180   12.9430 N.am      1 SUB1       -0.276
     12 C10        -2.6530    7.3290   12.7280 C.3       1 SUB1        0.066
     13 S11        -6.0100    0.7770   16.8160 S.o2      1 SUB1        0.068
     14 NP2        -5.5210   -0.6150   16.0610 N.am      1 SUB1       -0.261
     15 O13        -7.4390    1.0090   16.9510 O.2       1 SUB1       -0.150
     16 O14        -5.3740    0.9890   18.1060 O.2       1 SUB1       -0.150
     17 C15        -1.5610    7.9550   13.3490 C.ar      1 SUB1        0.046
     18 C16        -0.2950    7.9540   12.6830 C.ar      1 SUB1        0.133
     19 C17         0.8120    8.6020   13.3330 C.ar      1 SUB1       -0.039
     20 C18         0.6240    9.2310   14.6240 C.ar      1 SUB1       -0.072
     21 C19        -0.6590    9.2190   15.2750 C.ar      1 SUB1       -0.039
     22 C20        -1.7460    8.5840   14.6450 C.ar      1 SUB1        0.133
     23 F21        -0.1380    7.3680   11.4880 F         1 SUB1       -0.190
     24 F22        -2.9340    8.5820   15.2660 F         1 SUB1       -0.190
     25 H61        -7.4234    3.1884   15.8240 H         1 SUB1        0.065
     26 H71        -6.6710    5.1201   14.5172 H         1 SUB1        0.067
     27 H111       -2.2789    5.1951   12.7263 H         1 SUB1        0.187
     28 H121       -3.5506    7.8786   13.0478 H         1 SUB1        0.067
     29 H122       -2.5111    7.4571   11.6448 H         1 SUB1        0.067
     30 H141       -5.7274   -1.5113   16.4734 H         1 SUB1        0.163
     31 H191        1.7859    8.6197   12.8574 H         1 SUB1        0.055
     32 H201        1.4630    9.7184   15.1073 H         1 SUB1        0.054
     33 H211       -0.7873    9.6941   16.2408 H         1 SUB1        0.055
     34 H142       -5.0212   -0.5657   15.1963 H         1 SUB1        0.163
@<TRIPOS>BOND
     1    3    8 ar 
     2    3    4 ar 
     3    4    5 ar 
     4    5   13 1  
     5    5    6 ar 
     6    6    7 ar 
     7    7    8 ar 
     8    8    9 1  
     9    9   11 am 
    10    9   10 2  
    11   11   12 1  
    12   12   17 1  
    13   17   22 ar 
    14   17   18 ar 
    15   18   19 ar 
    16   19   20 ar 
    17   20   21 ar 
    18   21   22 ar 
    19   13   16 2  
    20   13   15 2  
    21   13   14 1  
    22   22   24 1  
    23   18   23 1  
    24    3    1 1  
    25    4    2 1  
    26    6   25 1  
    27    7   26 1  
    28   11   27 1  
    29   12   28 1  
    30   12   29 1  
    31   14   30 1  
    32   19   31 1  
    33   20   32 1  
    34   21   33 1  
    35   14   34 1  
@<TRIPOS>SUBSTRUCTURE
     1 SUB1        1 GROUP

