1g53_ligand
  -I-interpret- 

 34 35  0  0  0  0  0  0  0  0999 V2000
   -2.7389    3.4964   14.3409 H   0  0  0  0  0
   -3.4381    1.5466   15.6894 H   0  0  0  0  0
   -3.7680    3.4250   14.6740 C   0  0  0  0  0
   -4.1570    2.3160   15.4320 C   0  0  0  0  0
   -5.5080    2.2120   15.8600 C   0  0  0  0  0
   -6.3880    3.2440   15.5080 C   0  0  0  0  0
   -5.9630    4.3370   14.7630 C   0  0  0  0  0
   -4.6610    4.4450   14.3310 C   0  0  0  0  0
   -4.2310    5.6510   13.4910 C   0  0  0  0  0
   -5.1200    6.4610   13.2620 O   0  0  0  0  0
   -2.9350    5.9180   12.9430 N   0  0  0  0  0
   -2.6530    7.3290   12.7280 C   0  0  0  0  0
   -6.0100    0.7770   16.8160 S   0  0  0  0  0
   -5.5210   -0.6150   16.0610 N   0  0  0  0  0
   -7.4390    1.0090   16.9510 O   0  0  0  0  0
   -5.3740    0.9890   18.1060 O   0  0  0  0  0
   -1.5610    7.9550   13.3490 C   0  0  0  0  0
   -0.2950    7.9540   12.6830 C   0  0  0  0  0
    0.8120    8.6020   13.3330 C   0  0  0  0  0
    0.6240    9.2310   14.6240 C   0  0  0  0  0
   -0.6590    9.2190   15.2750 C   0  0  0  0  0
   -1.7460    8.5840   14.6450 C   0  0  0  0  0
   -0.1380    7.3680   11.4880 F   0  0  0  0  0
   -2.9340    8.5820   15.2660 F   0  0  0  0  0
   -7.4234    3.1884   15.8240 H   0  0  0  0  0
   -6.6710    5.1201   14.5172 H   0  0  0  0  0
   -2.2789    5.1951   12.7263 H   0  0  0  0  0
   -3.5506    7.8786   13.0478 H   0  0  0  0  0
   -2.5111    7.4571   11.6448 H   0  0  0  0  0
   -5.7274   -1.5113   16.4734 H   0  0  0  0  0
    1.7859    8.6197   12.8574 H   0  0  0  0  0
    1.4630    9.7184   15.1073 H   0  0  0  0  0
   -0.7873    9.6941   16.2408 H   0  0  0  0  0
   -5.0212   -0.5657   15.1963 H   0  0  0  0  0
  3  8  4  0  0  0
  3  4  4  0  0  0
  4  5  4  0  0  0
  5 13  1  0  0  0
  5  6  4  0  0  0
  6  7  4  0  0  0
  7  8  4  0  0  0
  8  9  1  0  0  0
  9 11  1  0  0  0
  9 10  2  0  0  0
 11 12  1  0  0  0
 12 17  1  0  0  0
 17 22  4  0  0  0
 17 18  4  0  0  0
 18 19  4  0  0  0
 19 20  4  0  0  0
 20 21  4  0  0  0
 21 22  4  0  0  0
 13 16  2  0  0  0
 13 15  2  0  0  0
 13 14  1  0  0  0
 22 24  1  0  0  0
 18 23  1  0  0  0
  3  1  1  0  0  0
  4  2  1  0  0  0
  6 25  1  0  0  0
  7 26  1  0  0  0
 11 27  1  0  0  0
 12 28  1  0  0  0
 12 29  1  0  0  0
 14 30  1  0  0  0
 19 31  1  0  0  0
 20 32  1  0  0  0
 21 33  1  0  0  0
 14 34  1  0  0  0
M  END
$$$$
