1zvx_ligand
  -I-interpret- 

 46 47  0  0  0  0  0  0  0  0999 V2000
   -1.1900   22.3760    5.5780 C   0  0  0  0  0
   -0.2200   21.2840    5.5370 C   0  0  0  0  0
    0.1980   20.7060    4.2360 C   0  0  0  0  0
   -0.3690   21.2300    2.9850 C   0  0  0  0  0
   -1.3300   22.3140    3.0300 C   0  0  0  0  0
   -1.7470   22.8920    4.3240 C   0  0  0  0  0
    0.0160   20.6800    1.6880 O   0  0  0  0  0
    0.6930   19.4200    1.5690 C   0  0  0  0  0
   -1.6310   22.9410    6.8970 C   0  0  0  0  0
   -0.8140   22.7560    8.1060 C   0  0  0  0  0
   -1.2770   23.2820    9.3780 C   0  0  0  0  0
   -2.5740   24.0070    9.4550 C   0  0  0  0  0
   -3.3680   24.2050    8.2630 C   0  0  0  0  0
   -2.9180   23.6810    6.9950 C   0  0  0  0  0
   -3.1450   24.6220   11.0000 S   0  0  0  0  0
   -4.5850   24.6930   10.8850 O   0  0  0  0  0
   -2.6490   23.6950   11.9740 O   0  0  0  0  0
   -2.6120   26.1290   11.3960 N   0  0  0  0  0
   -3.1340   27.2710   10.8750 C   0  0  0  0  0
   -3.7190   28.1300   12.0500 C   0  0  0  0  0
   -4.9370   27.5370   12.6770 C   0  0  0  0  0
   -2.7510   28.4510   13.2100 C   0  0  0  0  0
   -1.8220   28.0970   10.0800 P   0  0  0  0  0
   -2.1310   29.5680    9.9040 O   0  5  0  0  0
   -0.5650   27.9580   10.8700 O   0  5  0  0  0
   -1.6540   27.4670    8.8220 O   0  0  0  0  0
    0.1977   20.8929    6.4648 H   0  0  0  0  0
    0.9245   19.8939    4.2078 H   0  0  0  0  0
   -1.7480   22.7055    2.1026 H   0  0  0  0  0
   -2.4720   23.7057    4.3465 H   0  0  0  0  0
    1.6401   19.4657    2.1067 H   0  0  0  0  0
    0.0702   18.6328    1.9938 H   0  0  0  0  0
    0.8811   19.2080    0.5165 H   0  0  0  0  0
    0.1364   22.2255    8.0474 H   0  0  0  0  0
   -0.6745   23.1457   10.2761 H   0  0  0  0  0
   -4.3092   24.7515    8.3218 H   0  0  0  0  0
   -3.5260   23.8288    6.1025 H   0  0  0  0  0
   -1.8492   26.2099   12.0683 H   0  0  0  0  0
   -3.9377   27.0799   10.1639 H   0  0  0  0  0
   -3.9494   29.0545   11.5206 H   0  0  0  0  0
   -5.7198   27.4382   11.9249 H   0  0  0  0  0
   -4.6941   26.5545   13.0817 H   0  0  0  0  0
   -5.2834   28.1868   13.4806 H   0  0  0  0  0
   -2.4051   27.5208   13.6608 H   0  0  0  0  0
   -1.8975   29.0093   12.8254 H   0  0  0  0  0
   -3.2697   29.0486   13.9596 H   0  0  0  0  0
  1  2  4  0  0  0
  1  6  4  0  0  0
  1  9  1  0  0  0
  2  3  4  0  0  0
  3  4  4  0  0  0
  4  5  4  0  0  0
  4  7  1  0  0  0
  5  6  4  0  0  0
  7  8  1  0  0  0
  9 10  4  0  0  0
  9 14  4  0  0  0
 10 11  4  0  0  0
 11 12  4  0  0  0
 12 13  4  0  0  0
 12 15  1  0  0  0
 13 14  4  0  0  0
 15 16  2  0  0  0
 15 17  2  0  0  0
 15 18  1  0  0  0
 18 19  1  0  0  0
 19 20  1  0  0  0
 19 23  1  0  0  0
 20 21  1  0  0  0
 20 22  1  0  0  0
 23 24  1  0  0  0
 23 25  1  0  0  0
 23 26  2  0  0  0
  2 27  1  0  0  0
  3 28  1  0  0  0
  5 29  1  0  0  0
  6 30  1  0  0  0
  8 31  1  0  0  0
  8 32  1  0  0  0
  8 33  1  0  0  0
 10 34  1  0  0  0
 11 35  1  0  0  0
 13 36  1  0  0  0
 14 37  1  0  0  0
 18 38  1  0  0  0
 19 39  1  0  0  0
 20 40  1  0  0  0
 21 41  1  0  0  0
 21 42  1  0  0  0
 21 43  1  0  0  0
 22 44  1  0  0  0
 22 45  1  0  0  0
 22 46  1  0  0  0
M  END
$$$$
