### 
### Created by X-TOOL on Sun Jun  3 11:16:16 2007
### 

@<TRIPOS>MOLECULE
1zvx_ligand
   46    47     1     0     0
SMALL
GAST_HUCK


@<TRIPOS>ATOM
      1 C14        -1.1900   22.3760    5.5780 C.ar      1 SUB1       -0.028
      2 C15        -0.2200   21.2840    5.5370 C.ar      1 SUB1       -0.062
      3 C16         0.1980   20.7060    4.2360 C.ar      1 SUB1       -0.031
      4 C17        -0.3690   21.2300    2.9850 C.ar      1 SUB1        0.093
      5 C1         -1.3300   22.3140    3.0300 C.ar      1 SUB1       -0.031
      6 C2         -1.7470   22.8920    4.3240 C.ar      1 SUB1       -0.062
      7 O1          0.0160   20.6800    1.6880 O.3       1 SUB1       -0.320
      8 C3          0.6930   19.4200    1.5690 C.3       1 SUB1        0.060
      9 C4         -1.6310   22.9410    6.8970 C.ar      1 SUB1       -0.025
     10 C5         -0.8140   22.7560    8.1060 C.ar      1 SUB1       -0.055
     11 C6         -1.2770   23.2820    9.3780 C.ar      1 SUB1       -0.036
     12 C7         -2.5740   24.0070    9.4550 C.ar      1 SUB1        0.107
     13 C8         -3.3680   24.2050    8.2630 C.ar      1 SUB1       -0.036
     14 C9         -2.9180   23.6810    6.9950 C.ar      1 SUB1       -0.055
     15 S1         -3.1450   24.6220   11.0000 S.o2      1 SUB1        0.069
     16 O2         -4.5850   24.6930   10.8850 O.2       1 SUB1       -0.150
     17 O3         -2.6490   23.6950   11.9740 O.2       1 SUB1       -0.150
     18 N1         -2.6120   26.1290   11.3960 N.am      1 SUB1       -0.222
     19 C10        -3.1340   27.2710   10.8750 C.3       1 SUB1        0.182
     20 C11        -3.7190   28.1300   12.0500 C.3       1 SUB1       -0.005
     21 C12        -4.9370   27.5370   12.6770 C.3       1 SUB1       -0.059
     22 C13        -2.7510   28.4510   13.2100 C.3       1 SUB1       -0.059
     23 P1         -1.8220   28.0970   10.0800 P.3       1 SUB1        0.496
     24 O4         -2.1310   29.5680    9.9040 O.2       1 SUB1       -0.230
     25 O5         -0.5650   27.9580   10.8700 O.2       1 SUB1       -0.230
     26 O6         -1.6540   27.4670    8.8220 O.2       1 SUB1       -0.230
     27 H           0.1977   20.8929    6.4648 H         1 SUB1        0.060
     28 H           0.9245   19.8939    4.2078 H         1 SUB1        0.055
     29 H          -1.7480   22.7055    2.1026 H         1 SUB1        0.055
     30 H          -2.4720   23.7057    4.3465 H         1 SUB1        0.060
     31 H           1.6401   19.4657    2.1067 H         1 SUB1        0.058
     32 H           0.0702   18.6328    1.9938 H         1 SUB1        0.058
     33 H           0.8811   19.2080    0.5165 H         1 SUB1        0.058
     34 H           0.1364   22.2255    8.0474 H         1 SUB1        0.061
     35 H          -0.6745   23.1457   10.2761 H         1 SUB1        0.063
     36 H          -4.3092   24.7515    8.3218 H         1 SUB1        0.063
     37 H          -3.5260   23.8288    6.1025 H         1 SUB1        0.061
     38 H          -1.8492   26.2099   12.0683 H         1 SUB1        0.169
     39 H          -3.9377   27.0799   10.1639 H         1 SUB1        0.077
     40 H          -3.9494   29.0545   11.5206 H         1 SUB1        0.033
     41 H          -5.7198   27.4382   11.9249 H         1 SUB1        0.023
     42 H          -4.6941   26.5545   13.0817 H         1 SUB1        0.023
     43 H          -5.2834   28.1868   13.4806 H         1 SUB1        0.023
     44 H          -2.4051   27.5208   13.6608 H         1 SUB1        0.023
     45 H          -1.8975   29.0093   12.8254 H         1 SUB1        0.023
     46 H          -3.2697   29.0486   13.9596 H         1 SUB1        0.023
@<TRIPOS>BOND
     1    1    2 ar 
     2    1    6 ar 
     3    1    9 1  
     4    2    3 ar 
     5    3    4 ar 
     6    4    5 ar 
     7    4    7 1  
     8    5    6 ar 
     9    7    8 1  
    10    9   10 ar 
    11    9   14 ar 
    12   10   11 ar 
    13   11   12 ar 
    14   12   13 ar 
    15   12   15 1  
    16   13   14 ar 
    17   15   16 2  
    18   15   17 2  
    19   15   18 1  
    20   18   19 1  
    21   19   20 1  
    22   19   23 1  
    23   20   21 1  
    24   20   22 1  
    25   23   24 2  
    26   23   25 2  
    27   23   26 2  
    28    2   27 1  
    29    3   28 1  
    30    5   29 1  
    31    6   30 1  
    32    8   31 1  
    33    8   32 1  
    34    8   33 1  
    35   10   34 1  
    36   11   35 1  
    37   13   36 1  
    38   14   37 1  
    39   18   38 1  
    40   19   39 1  
    41   20   40 1  
    42   21   41 1  
    43   21   42 1  
    44   21   43 1  
    45   22   44 1  
    46   22   45 1  
    47   22   46 1  
@<TRIPOS>SUBSTRUCTURE
     1 SUB1        1 GROUP

