### 
### Created by X-TOOL on Mon Oct 24 22:39:57 2005
### 

@<TRIPOS>MOLECULE
1tom_ligand
   64    66     1     0     0
SMALL
GAST_HUCK


@<TRIPOS>ATOM
      1 N1         10.3160  -12.8040   23.5250 N.4       1 SUB1        0.221
      2 C1         11.3220  -12.7910   22.5040 C.3       1 SUB1       -0.024
      3 C2         12.5960  -13.2860   23.1240 C.3       1 SUB1       -0.009
      4 C3         13.7450  -13.2510   22.1460 C.3       1 SUB1       -0.043
      5 C4         13.9200  -11.8380   21.5900 C.3       1 SUB1       -0.020
      6 C5         12.6590  -11.3000   20.9420 C.3       1 SUB1       -0.043
      7 C6         11.5480  -11.3550   21.9740 C.3       1 SUB1       -0.009
      8 C7         14.9980  -11.8090   20.5710 C.3       1 SUB1        0.034
      9 N7         16.3250  -11.9530   21.1710 N.am      1 SUB1       -0.285
     10 C8         17.1170  -13.0170   20.9440 C.2       1 SUB1        0.202
     11 O8         16.7290  -13.9670   20.2610 O.2       1 SUB1       -0.394
     12 C9         18.5150  -13.0970   21.5690 C.3       1 SUB1        0.134
     13 C10        19.5800  -13.0850   20.5050 C.3       1 SUB1       -0.010
     14 C11        20.5550  -14.1330   20.9450 C.3       1 SUB1       -0.028
     15 C12        19.7010  -15.1760   21.6260 C.3       1 SUB1        0.037
     16 N9         18.6620  -14.3740   22.2720 N.am      1 SUB1       -0.247
     17 C13        17.8220  -14.8100   23.2150 C.2       1 SUB1        0.231
     18 O13        16.9480  -14.0710   23.6920 O.2       1 SUB1       -0.390
     19 C14        15.8190  -17.0230   22.6010 C.3       1 SUB1       -0.043
     20 N13        16.6180  -16.8730   23.8320 N.4       1 SUB1        0.245
     21 C15        17.9320  -16.2260   23.7760 C.3       1 SUB1        0.076
     22 C16        18.5320  -16.1970   25.2170 C.3       1 SUB1        0.042
     23 C17        19.8880  -15.5410   25.3810 C.ar      1 SUB1       -0.035
     24 C18        21.0020  -16.1550   24.8590 C.ar      1 SUB1       -0.060
     25 C19        22.2210  -15.5290   24.9600 C.ar      1 SUB1       -0.069
     26 C20        22.3090  -14.3140   25.6040 C.ar      1 SUB1       -0.069
     27 C21        21.1840  -13.7160   26.1340 C.ar      1 SUB1       -0.069
     28 C22        19.9680  -14.3310   26.0350 C.ar      1 SUB1       -0.060
     29 H11         9.4436  -12.4759   23.1412 H         1 SUB1        0.200
     30 H12        10.5978  -12.2012   24.2821 H         1 SUB1        0.200
     31 H13        10.1991  -13.7440   23.8696 H         1 SUB1        0.200
     32 H21        11.0216  -13.4475   21.6741 H         1 SUB1        0.085
     33 H31        12.4482  -14.3220   23.4629 H         1 SUB1        0.032
     34 H32        12.8431  -12.6497   23.9866 H         1 SUB1        0.032
     35 H41        13.5387  -13.9447   21.3176 H         1 SUB1        0.027
     36 H42        14.6687  -13.5568   22.6591 H         1 SUB1        0.027
     37 H51        14.1959  -11.1756   22.4238 H         1 SUB1        0.032
     38 H61        12.3924  -11.9179   20.0719 H         1 SUB1        0.027
     39 H62        12.8184  -10.2607   20.6188 H         1 SUB1        0.027
     40 H71        11.8146  -10.7023   22.8183 H         1 SUB1        0.032
     41 H72        10.6163  -10.9956   21.5127 H         1 SUB1        0.032
     42 H81        14.9534  -10.8499   20.0343 H         1 SUB1        0.052
     43 H82        14.8379  -12.6341   19.8614 H         1 SUB1        0.052
     44 H91        16.6576  -11.2294   21.7758 H         1 SUB1        0.185
     45 H121       18.6585  -12.2549   22.2620 H         1 SUB1        0.080
     46 H131       20.0655  -12.0994   20.4508 H         1 SUB1        0.031
     47 H132       19.1529  -13.3379   19.5234 H         1 SUB1        0.031
     48 H141       21.2892  -13.7116   21.6474 H         1 SUB1        0.029
     49 H142       21.0804  -14.5640   20.0800 H         1 SUB1        0.029
     50 H151       20.2833  -15.7418   22.3682 H         1 SUB1        0.052
     51 H152       19.2660  -15.8717   20.8934 H         1 SUB1        0.052
     52 H191       14.8709  -17.5277   22.8385 H         1 SUB1        0.078
     53 H192       16.3808  -17.6231   21.8701 H         1 SUB1        0.078
     54 H193       15.6094  -16.0301   22.1766 H         1 SUB1        0.078
     55 H201       16.0583  -16.3405   24.4795 H         1 SUB1        0.203
     56 H202       16.7652  -17.8003   24.1986 H         1 SUB1        0.203
     57 H211       18.5932  -16.8131   23.1217 H         1 SUB1        0.112
     58 H221       18.6226  -17.2381   25.5604 H         1 SUB1        0.051
     59 H222       17.8220  -15.6586   25.8620 H         1 SUB1        0.051
     60 H241       20.9196  -17.1209   24.3738 H         1 SUB1        0.056
     61 H251       23.1070  -15.9876   24.5361 H         1 SUB1        0.060
     62 H261       23.2712  -13.8232   25.6952 H         1 SUB1        0.056
     63 H271       21.2652  -12.7557   26.6302 H         1 SUB1        0.060
     64 H281       19.0825  -13.8753   26.4631 H         1 SUB1        0.056
@<TRIPOS>BOND
     1    1    2 1  
     2    2    7 1  
     3    2    3 1  
     4    3    4 1  
     5    4    5 1  
     6    5    8 1  
     7    5    6 1  
     8    6    7 1  
     9    8    9 1  
    10    9   10 am 
    11   10   12 1  
    12   10   11 2  
    13   12   16 1  
    14   12   13 1  
    15   13   14 1  
    16   14   15 1  
    17   15   16 1  
    18   16   17 am 
    19   17   21 1  
    20   17   18 2  
    21   21   22 1  
    22   21   20 1  
    23   20   19 1  
    24   22   23 1  
    25   23   28 ar 
    26   23   24 ar 
    27   24   25 ar 
    28   25   26 ar 
    29   26   27 ar 
    30   27   28 ar 
    31    1   29 1  
    32    1   30 1  
    33    1   31 1  
    34    2   32 1  
    35    3   33 1  
    36    3   34 1  
    37    4   35 1  
    38    4   36 1  
    39    5   37 1  
    40    6   38 1  
    41    6   39 1  
    42    7   40 1  
    43    7   41 1  
    44    8   42 1  
    45    8   43 1  
    46    9   44 1  
    47   12   45 1  
    48   13   46 1  
    49   13   47 1  
    50   14   48 1  
    51   14   49 1  
    52   15   50 1  
    53   15   51 1  
    54   19   52 1  
    55   19   53 1  
    56   19   54 1  
    57   20   55 1  
    58   20   56 1  
    59   21   57 1  
    60   22   58 1  
    61   22   59 1  
    62   24   60 1  
    63   25   61 1  
    64   26   62 1  
    65   27   63 1  
    66   28   64 1  
@<TRIPOS>SUBSTRUCTURE
     1 SUB1        1 GROUP

