1pr1_ligand
  -I-interpret- 

 31 33  0  0  0  0  0  0  0  0999 V2000
   87.4890   65.9250   17.7080 N   0  0  0  0  0
   88.1440   64.8000   18.2760 C   0  0  0  0  0
   89.2540   64.9770   19.0850 N   0  0  0  0  0
   89.6470   66.2750   19.3090 C   0  0  0  0  0
   89.0050   67.4310   18.7950 C   0  0  0  0  0
   87.8710   67.2660   17.9260 C   0  0  0  0  0
   87.2530   68.1700   17.3840 O   0  0  0  0  0
   89.6040   68.5870   19.2210 N   0  0  0  0  0
   90.6690   68.1320   19.9920 N   0  0  0  0  0
   90.7400   66.7270   20.0430 C   0  0  0  0  0
   91.8340   66.0780   20.7670 C   0  0  0  0  0
   91.6940   64.5840   21.1650 C   0  0  0  0  0
   91.8850   64.5630   22.5730 O   0  0  0  0  0
   92.7660   63.8050   20.3850 C   0  0  0  0  0
   93.8180   63.2550   21.2060 O   0  0  0  0  0
   93.4550   64.8110   19.4940 C   0  0  0  0  0
   92.9400   66.1140   19.8240 O   0  0  0  0  0
   93.2720   64.4190   18.0160 C   0  0  0  0  0
   93.3410   65.5160   17.1070 O   0  0  0  0  0
   86.7034   65.7553   17.1129 H   0  0  0  0  0
   87.7726   63.7962   18.0749 H   0  0  0  0  0
   89.3314   69.5595   19.0190 H   0  0  0  0  0
   92.0661   66.6648   21.6679 H   0  0  0  0  0
   90.7033   64.1829   20.9050 H   0  0  0  0  0
   92.7476   64.9032   22.7795 H   0  0  0  0  0
   92.2942   63.0110   19.7877 H   0  0  0  0  0
   93.4429   62.6538   21.8387 H   0  0  0  0  0
   94.5358   64.7994   19.6980 H   0  0  0  0  0
   94.0635   63.7066   17.7406 H   0  0  0  0  0
   92.2852   63.9478   17.8968 H   0  0  0  0  0
   92.6583   66.1426   17.3163 H   0  0  0  0  0
  1  2  1  0  0  0
  1  6  1  0  0  0
  2  3  2  0  0  0
  3  4  1  0  0  0
  4  5  2  0  0  0
  4 10  1  0  0  0
  5  6  1  0  0  0
  5  8  1  0  0  0
  6  7  2  0  0  0
  8  9  1  0  0  0
  9 10  2  0  0  0
 10 11  1  0  0  0
 11 12  1  0  0  0
 11 17  1  0  0  0
 12 13  1  0  0  0
 12 14  1  0  0  0
 14 15  1  0  0  0
 14 16  1  0  0  0
 16 17  1  0  0  0
 16 18  1  0  0  0
 18 19  1  0  0  0
  1 20  1  0  0  0
  2 21  1  0  0  0
  8 22  1  0  0  0
 11 23  1  0  0  0
 12 24  1  0  0  0
 13 25  1  0  0  0
 14 26  1  0  0  0
 15 27  1  0  0  0
 16 28  1  0  0  0
 18 29  1  0  0  0
 18 30  1  0  0  0
 19 31  1  0  0  0
M  END
$$$$
