### 
### Created by X-TOOL on Tue Oct 25 02:02:37 2005
### 

@<TRIPOS>MOLECULE
1pr1_ligand
   31    33     1     0     0
SMALL
GAST_HUCK


@<TRIPOS>ATOM
      1 N1         87.4890   65.9250   17.7080 N.am      1 SUB1       -0.204
      2 C2         88.1440   64.8000   18.2760 C.2       1 SUB1        0.116
      3 N3         89.2540   64.9770   19.0850 N.2       1 SUB1       -0.313
      4 C4         89.6470   66.2750   19.3090 C.2       1 SUB1        0.051
      5 C5         89.0050   67.4310   18.7950 C.2       1 SUB1        0.166
      6 C6         87.8710   67.2660   17.9260 C.2       1 SUB1        0.256
      7 O6         87.2530   68.1700   17.3840 O.2       1 SUB1       -0.393
      8 N7         89.6040   68.5870   19.2210 N.pl3     1 SUB1       -0.218
      9 N8         90.6690   68.1320   19.9920 N.2       1 SUB1       -0.217
     10 C9         90.7400   66.7270   20.0430 C.2       1 SUB1        0.065
     11 C1'        91.8340   66.0780   20.7670 C.3       1 SUB1        0.127
     12 C2'        91.6940   64.5840   21.1650 C.3       1 SUB1        0.119
     13 O2'        91.8850   64.5630   22.5730 O.3       1 SUB1       -0.385
     14 C3'        92.7660   63.8050   20.3850 C.3       1 SUB1        0.113
     15 O3'        93.8180   63.2550   21.2060 O.3       1 SUB1       -0.386
     16 C4'        93.4550   64.8110   19.4940 C.3       1 SUB1        0.113
     17 O4'        92.9400   66.1140   19.8240 O.3       1 SUB1       -0.354
     18 C5'        93.2720   64.4190   18.0160 C.3       1 SUB1        0.073
     19 O5'        93.3410   65.5160   17.1070 O.3       1 SUB1       -0.392
     20 H11        86.7034   65.7553   17.1129 H         1 SUB1        0.252
     21 H21        87.7726   63.7962   18.0749 H         1 SUB1        0.142
     22 H81        89.3314   69.5595   19.0190 H         1 SUB1        0.249
     23 H111       92.0661   66.6648   21.6679 H         1 SUB1        0.077
     24 H121       90.7033   64.1829   20.9050 H         1 SUB1        0.067
     25 H131       92.7476   64.9032   22.7795 H         1 SUB1        0.210
     26 H141       92.2942   63.0110   19.7877 H         1 SUB1        0.065
     27 H151       93.4429   62.6538   21.8387 H         1 SUB1        0.210
     28 H161       94.5358   64.7994   19.6980 H         1 SUB1        0.065
     29 H181       94.0635   63.7066   17.7406 H         1 SUB1        0.058
     30 H182       92.2852   63.9478   17.8968 H         1 SUB1        0.058
     31 H191       92.6583   66.1426   17.3163 H         1 SUB1        0.209
@<TRIPOS>BOND
     1    1    2 am 
     2    1    6 am 
     3    2    3 2  
     4    3    4 1  
     5    4    5 2  
     6    4   10 1  
     7    5    6 1  
     8    5    8 1  
     9    6    7 2  
    10    8    9 1  
    11    9   10 2  
    12   10   11 1  
    13   11   12 1  
    14   11   17 1  
    15   12   13 1  
    16   12   14 1  
    17   14   15 1  
    18   14   16 1  
    19   16   17 1  
    20   16   18 1  
    21   18   19 1  
    22    1   20 1  
    23    2   21 1  
    24    8   22 1  
    25   11   23 1  
    26   12   24 1  
    27   13   25 1  
    28   14   26 1  
    29   15   27 1  
    30   16   28 1  
    31   18   29 1  
    32   18   30 1  
    33   19   31 1  
@<TRIPOS>SUBSTRUCTURE
     1 SUB1        1 GROUP

