### 
### Created by X-TOOL on Mon Oct 24 23:22:52 2005
### 

@<TRIPOS>MOLECULE
1tq4_ligand
   40    42     1     0     0
SMALL
GAST_HUCK


@<TRIPOS>ATOM
      1 PB          9.6810   25.2450   36.8220 P.3       1 SUB1        0.158
      2 O1B         8.9710   26.1030   37.7580 O.co2     1 SUB1       -0.616
      3 O2B         8.9760   23.9910   36.4100 O.co2     1 SUB1       -0.616
      4 O3B        10.0170   25.8680   35.4480 O.co2     1 SUB1       -0.616
      5 O3A        11.0390   24.5870   37.5810 O.3       1 SUB1       -0.257
      6 PA         12.2030   25.5230   38.2220 P.3       1 SUB1        0.372
      7 O1A        13.2380   25.0210   37.2790 O.co2     1 SUB1       -0.457
      8 O2A        12.0560   26.9930   38.1790 O.co2     1 SUB1       -0.457
      9 O5         12.4830   24.7830   39.5990 O.3       1 SUB1       -0.253
     10 C5         11.7590   24.9460   40.8100 C.3       1 SUB1        0.111
     11 C4         12.7840   25.0580   41.9680 C.3       1 SUB1        0.119
     12 O4         13.5040   23.8180   42.3300 O.3       1 SUB1       -0.336
     13 C3         13.9910   26.0460   41.7710 C.3       1 SUB1        0.115
     14 O3         14.1880   26.6390   43.0920 O.3       1 SUB1       -0.386
     15 C2         15.1780   25.1680   41.3440 C.3       1 SUB1        0.139
     16 O2         16.4620   25.6890   41.6730 O.3       1 SUB1       -0.384
     17 C1         14.8830   23.8490   42.0020 C.3       1 SUB1        0.199
     18 N9         15.1740   22.6370   41.1520 N.pl3     1 SUB1       -0.210
     19 C8         14.8320   22.2810   39.8680 C.2       1 SUB1        0.096
     20 N7         15.2990   21.1180   39.5110 N.2       1 SUB1       -0.324
     21 C5         15.9990   20.6520   40.6100 C.2       1 SUB1        0.093
     22 C6         16.7470   19.4300   40.8590 C.2       1 SUB1        0.213
     23 O6         16.9200   18.4840   40.0750 O.2       1 SUB1       -0.409
     24 N1         17.3250   19.3710   42.1790 N.am      1 SUB1       -0.184
     25 C2         17.2010   20.3690   43.1520 C.2       1 SUB1        0.234
     26 N2         17.8050   20.1400   44.3170 N.pl3     1 SUB1       -0.281
     27 N3         16.4940   21.5320   42.9310 N.2       1 SUB1       -0.276
     28 C4         15.9410   21.5840   41.6580 C.2       1 SUB1        0.116
     29 H101       11.1042   24.0774   40.9735 H         1 SUB1        0.065
     30 H102       11.1497   25.8605   40.7608 H         1 SUB1        0.065
     31 H111       12.2026   25.3919   42.8400 H         1 SUB1        0.065
     32 H131       13.7840   26.8189   41.0162 H         1 SUB1        0.065
     33 H141       14.9095   27.2559   43.0565 H         1 SUB1        0.210
     34 H151       15.1533   25.0419   40.2515 H         1 SUB1        0.068
     35 H161       16.5273   25.7961   42.6147 H         1 SUB1        0.210
     36 H171       15.4846   23.7805   42.9204 H         1 SUB1        0.100
     37 H191       14.2298   22.9097   39.2138 H         1 SUB1        0.118
     38 H241       17.8538   18.5562   42.4166 H         1 SUB1        0.252
     39 H261       17.7491   20.8383   45.0721 H         1 SUB1        0.190
     40 H262       18.3280   19.2647   44.4627 H         1 SUB1        0.190
@<TRIPOS>BOND
     1    1    2 2  
     2    1    3 2  
     3    1    4 2  
     4    1    5 1  
     5    5    6 1  
     6    6    7 2  
     7    6    8 2  
     8    6    9 1  
     9    9   10 1  
    10   10   11 1  
    11   11   12 1  
    12   11   13 1  
    13   12   17 1  
    14   13   14 1  
    15   13   15 1  
    16   15   16 1  
    17   15   17 1  
    18   17   18 1  
    19   18   19 1  
    20   18   28 1  
    21   19   20 2  
    22   20   21 1  
    23   21   22 1  
    24   21   28 2  
    25   22   23 2  
    26   22   24 am 
    27   24   25 1  
    28   25   26 1  
    29   25   27 2  
    30   27   28 1  
    31   10   29 1  
    32   10   30 1  
    33   11   31 1  
    34   13   32 1  
    35   14   33 1  
    36   15   34 1  
    37   16   35 1  
    38   17   36 1  
    39   19   37 1  
    40   24   38 1  
    41   26   39 1  
    42   26   40 1  
@<TRIPOS>SUBSTRUCTURE
     1 SUB1        1 GROUP

