### 
### Created by X-TOOL on Mon Oct 24 21:59:51 2005
### 

@<TRIPOS>MOLECULE
1c5n_ligand
   21    22     1     0     0
SMALL
GAST_HUCK


@<TRIPOS>ATOM
      1 H111       10.2938  -14.0345   24.4885 H         1 SUB1        0.193
      2 H112        9.5507  -13.0537   25.7801 H         1 SUB1        0.193
      3 H121       11.2978  -10.1065   24.5876 H         1 SUB1        0.193
      4 H122       10.1597  -10.6686   25.8411 H         1 SUB1        0.193
      5 H161       11.4754  -14.3024   22.9629 H         1 SUB1        0.047
      6 H171       14.4646  -10.3606   20.6048 H         1 SUB1        0.059
      7 H181       15.3365  -12.0426   19.0026 H         1 SUB1        0.057
      8 H191       14.5920  -14.4004   19.1437 H         1 SUB1        0.059
      9 C0         10.8040  -12.0750   24.5260 C.cat     1 SUB1        0.332
     10 C1         11.6090  -12.2200   23.4780 C.2       1 SUB1        0.245
     11 N1         10.1720  -13.1280   24.9620 N.pl3     1 SUB1       -0.198
     12 N2         10.7500  -10.8640   25.0200 N.pl3     1 SUB1       -0.198
     13 S2         12.4820  -10.7990   22.8680 S.3       1 SUB1        0.023
     14 C3         13.2420  -11.7990   21.6210 C.ar      1 SUB1        0.045
     15 C4         12.8000  -13.1180   21.7330 C.ar      1 SUB1       -0.011
     16 C5         11.9090  -13.3260   22.7520 C.2       1 SUB1       -0.003
     17 C6         14.1420  -11.3940   20.6610 C.ar      1 SUB1       -0.047
     18 C7         14.6270  -12.3380   19.7670 C.ar      1 SUB1       -0.067
     19 C8         14.2030  -13.6740   19.8480 C.ar      1 SUB1       -0.061
     20 C9         13.2780  -14.0870   20.8320 C.ar      1 SUB1        0.004
     21 I9         12.5840  -16.0470   20.9790 I         1 SUB1       -0.055
@<TRIPOS>BOND
     1   20   21 1  
     2   11    1 1  
     3   11    2 1  
     4   12    3 1  
     5   12    4 1  
     6   16    5 1  
     7   17    6 1  
     8   18    7 1  
     9   19    8 1  
    10    9   12 1  
    11    9   11 1  
    12   10    9 1  
    13   16   10 2  
    14   10   13 1  
    15   14   13 1  
    16   14   17 ar 
    17   15   14 ar 
    18   20   15 ar 
    19   15   16 1  
    20   19   20 ar 
    21   19   18 ar 
    22   18   17 ar 
@<TRIPOS>SUBSTRUCTURE
     1 SUB1        1 GROUP

