1c5n_ligand
  -I-interpret- 

 21 22  0  0  0  0  0  0  0  0999 V2000
   10.2938  -14.0345   24.4885 H   0  0  0  0  0
    9.5507  -13.0537   25.7801 H   0  0  0  0  0
   11.2978  -10.1065   24.5876 H   0  0  0  0  0
   10.1597  -10.6686   25.8411 H   0  0  0  0  0
   11.4754  -14.3024   22.9629 H   0  0  0  0  0
   14.4646  -10.3606   20.6048 H   0  0  0  0  0
   15.3365  -12.0426   19.0026 H   0  0  0  0  0
   14.5920  -14.4004   19.1437 H   0  0  0  0  0
   10.8040  -12.0750   24.5260 C   0  3  0  0  0
   11.6090  -12.2200   23.4780 C   0  0  0  0  0
   10.1720  -13.1280   24.9620 N   0  0  0  0  0
   10.7500  -10.8640   25.0200 N   0  0  0  0  0
   12.4820  -10.7990   22.8680 S   0  0  0  0  0
   13.2420  -11.7990   21.6210 C   0  0  0  0  0
   12.8000  -13.1180   21.7330 C   0  0  0  0  0
   11.9090  -13.3260   22.7520 C   0  0  0  0  0
   14.1420  -11.3940   20.6610 C   0  0  0  0  0
   14.6270  -12.3380   19.7670 C   0  0  0  0  0
   14.2030  -13.6740   19.8480 C   0  0  0  0  0
   13.2780  -14.0870   20.8320 C   0  0  0  0  0
   12.5840  -16.0470   20.9790 I   0  0  0  0  0
 20 21  1  0  0  0
 11  1  1  0  0  0
 11  2  1  0  0  0
 12  3  1  0  0  0
 12  4  1  0  0  0
 16  5  1  0  0  0
 17  6  1  0  0  0
 18  7  1  0  0  0
 19  8  1  0  0  0
  9 12  1  0  0  0
  9 11  1  0  0  0
 10  9  1  0  0  0
 16 10  2  0  0  0
 10 13  1  0  0  0
 14 13  1  0  0  0
 14 17  4  0  0  0
 15 14  4  0  0  0
 20 15  4  0  0  0
 15 16  1  0  0  0
 19 20  4  0  0  0
 19 18  4  0  0  0
 18 17  4  0  0  0
M  END
$$$$
