1iih_ligand
  -I-interpret- 

 15 14  0  0  0  0  0  0  0  0999 V2000
   46.4510   15.2650   -8.7440 C   0  0  0  0  0
   47.3220   15.8050   -8.0570 O   0  5  0  0  0
   45.2700   15.2200   -8.4480 O   0  0  0  0  0
   46.8730   14.6890  -10.0830 C   0  0  0  0  0
   47.2570   13.3250  -10.0540 O   0  0  0  0  0
   48.0670   15.5450  -10.4800 C   0  0  0  0  0
   47.6780   16.7860  -11.1160 O   0  0  0  0  0
   47.7670   16.9710  -12.7130 P   0  0  0  0  0
   49.2390   16.7440  -12.9640 O   0  5  0  0  0
   46.8860   15.8500  -13.2130 O   0  5  0  0  0
   47.3480   18.3830  -12.9890 O   0  0  0  0  0
   46.0538   14.8041  -10.8080 H   0  0  0  0  0
   46.5106   12.7922   -9.8060 H   0  0  0  0  0
   48.6935   14.9723  -11.1797 H   0  0  0  0  0
   48.6477   15.7800   -9.5758 H   0  0  0  0  0
  1  4  1  0  0  0
  1  3  2  0  0  0
  1  2  1  0  0  0
  4  6  1  0  0  0
  4  5  1  0  0  0
  6  7  1  0  0  0
  7  8  1  0  0  0
  8 11  2  0  0  0
  8 10  1  0  0  0
  8  9  1  0  0  0
  4 12  1  0  0  0
  5 13  1  0  0  0
  6 14  1  0  0  0
  6 15  1  0  0  0
M  END
$$$$
