1bzj_ligand
  -I-interpret- 

 26 27  0  0  0  0  0  0  0  0999 V2000
   46.4480   15.8550    4.2270 C   0  0  0  0  0
   45.8550   14.9180    3.2840 C   0  0  0  0  0
   44.7470   15.2970    2.4980 C   0  0  0  0  0
   44.6670   10.9800    0.3540 C   0  0  0  0  0
   45.7820   10.6110    1.1300 C   0  0  0  0  0
   46.3650   11.4670    2.0570 C   0  0  0  0  0
   45.8450   12.7410    2.2120 C   0  0  0  0  0
   46.4100   13.6320    3.1300 C   0  0  0  0  0
   44.0620   10.0090   -0.6600 C   0  0  0  0  0
   44.1660   14.4320    1.5820 C   0  0  0  0  0
   44.7070   13.1440    1.4220 C   0  0  0  0  0
   44.1320   12.2430    0.5070 C   0  0  0  0  0
   43.0550   10.3370   -1.3530 O   0  5  0  0  0
   44.5790    8.8700   -0.7610 O   0  0  0  0  0
   45.4230   16.0660    5.7000 P   0  0  0  0  0
   46.0640   17.0350    6.6250 O   0  0  0  0  0
   45.3680   14.8540    6.5690 O   0  5  0  0  0
   43.8470   16.5390    5.4750 O   0  5  0  0  0
   46.5800   17.0870    3.6580 F   0  0  0  0  0
   47.6970   15.4340    4.5350 F   0  0  0  0  0
   44.3371   16.2939    2.6130 H   0  0  0  0  0
   46.2024    9.6204    0.9995 H   0  0  0  0  0
   47.2131   11.1425    2.6491 H   0  0  0  0  0
   47.2698   13.3351    3.7196 H   0  0  0  0  0
   43.3077   14.7445    0.9983 H   0  0  0  0  0
   43.2691   12.5407   -0.0776 H   0  0  0  0  0
  1 15  1  0  0  0
  1  2  1  0  0  0
  2  8  4  0  0  0
  2  3  4  0  0  0
  3 10  4  0  0  0
 10 11  4  0  0  0
 11 12  4  0  0  0
 11  7  4  0  0  0
  7  8  4  0  0  0
  7  6  4  0  0  0
  6  5  4  0  0  0
  5  4  4  0  0  0
  4 12  4  0  0  0
  4  9  1  0  0  0
  9 14  2  0  0  0
  9 13  1  0  0  0
 15 18  1  0  0  0
 15 17  1  0  0  0
 15 16  2  0  0  0
  1 20  1  0  0  0
  1 19  1  0  0  0
  3 21  1  0  0  0
  5 22  1  0  0  0
  6 23  1  0  0  0
  8 24  1  0  0  0
 10 25  1  0  0  0
 12 26  1  0  0  0
M  END
$$$$
