### 
### Created by X-TOOL on Tue Oct 25 01:42:14 2005
### 

@<TRIPOS>MOLECULE
1bzj_ligand
   26    27     1     0     0
SMALL
GAST_HUCK


@<TRIPOS>ATOM
      1 C1         46.4480   15.8550    4.2270 C.3       1 SUB1        0.206
      2 C2         45.8550   14.9180    3.2840 C.ar      1 SUB1       -0.037
      3 C3         44.7470   15.2970    2.4980 C.ar      1 SUB1       -0.056
      4 C7         44.6670   10.9800    0.3540 C.ar      1 SUB1        0.075
      5 C8         45.7820   10.6110    1.1300 C.ar      1 SUB1       -0.024
      6 C9         46.3650   11.4670    2.0570 C.ar      1 SUB1       -0.035
      7 C10        45.8450   12.7410    2.2120 C.ar      1 SUB1        0.010
      8 C11        46.4100   13.6320    3.1300 C.ar      1 SUB1       -0.039
      9 C12        44.0620   10.0090   -0.6600 C.2       1 SUB1        0.163
     10 C4         44.1660   14.4320    1.5820 C.ar      1 SUB1       -0.037
     11 C5         44.7070   13.1440    1.4220 C.ar      1 SUB1        0.019
     12 C6         44.1320   12.2430    0.5070 C.ar      1 SUB1        0.001
     13 O1         43.0550   10.3370   -1.3530 O.co2     1 SUB1       -0.483
     14 O2         44.5790    8.8700   -0.7610 O.co2     1 SUB1       -0.483
     15 P          45.4230   16.0660    5.7000 P.3       1 SUB1        0.061
     16 OP1        46.0640   17.0350    6.6250 O.co2     1 SUB1       -0.558
     17 OP2        45.3680   14.8540    6.5690 O.co2     1 SUB1       -0.558
     18 OP3        43.8470   16.5390    5.4750 O.co2     1 SUB1       -0.558
     19 F1         46.5800   17.0870    3.6580 F         1 SUB1       -0.311
     20 F2         47.6970   15.4340    4.5350 F         1 SUB1       -0.311
     21 H31        44.3371   16.2939    2.6130 H         1 SUB1        0.068
     22 H51        46.2024    9.6204    0.9995 H         1 SUB1        0.073
     23 H61        47.2131   11.1425    2.6491 H         1 SUB1        0.068
     24 H81        47.2698   13.3351    3.7196 H         1 SUB1        0.081
     25 H101       43.3077   14.7445    0.9983 H         1 SUB1        0.071
     26 H121       43.2691   12.5407   -0.0776 H         1 SUB1        0.095
@<TRIPOS>BOND
     1    1   15 1  
     2    1    2 1  
     3    2    8 ar 
     4    2    3 ar 
     5    3   10 ar 
     6   10   11 ar 
     7   11   12 ar 
     8   11    7 ar 
     9    7    8 ar 
    10    7    6 ar 
    11    6    5 ar 
    12    5    4 ar 
    13    4   12 ar 
    14    4    9 1  
    15    9   14 2  
    16    9   13 2  
    17   15   18 2  
    18   15   17 2  
    19   15   16 2  
    20    1   20 1  
    21    1   19 1  
    22    3   21 1  
    23    5   22 1  
    24    6   23 1  
    25    8   24 1  
    26   10   25 1  
    27   12   26 1  
@<TRIPOS>SUBSTRUCTURE
     1 SUB1        1 GROUP

