### 
### Created by X-TOOL on Tue Oct 25 01:38:58 2005
### 

@<TRIPOS>MOLECULE
1xd1_ligand
  129   134     1     0     0
SMALL
GAST_HUCK


@<TRIPOS>ATOM
      1 CR1         1.5360   15.7710   40.4180 C.3       1 SUB1        0.188
      2 CR2         1.5730   14.6060   41.4470 C.3       1 SUB1        0.134
      3 CR3         2.7720   15.0360   42.4030 C.3       1 SUB1        0.114
      4 CR4         4.0900   15.1000   41.5650 C.3       1 SUB1        0.118
      5 CR5         3.9420   16.1600   40.4390 C.3       1 SUB1        0.113
      6 CR6         5.1900   16.2260   39.5390 C.3       1 SUB1        0.073
      7 OR1         1.3470   17.0220   41.1990 O.3       1 SUB1       -0.346
      8 OR2         0.3740   14.5750   42.2030 O.3       1 SUB1       -0.384
      9 OR3         2.9460   14.0380   43.4130 O.3       1 SUB1       -0.386
     10 OR4         5.1990   15.5120   42.3830 O.3       1 SUB1       -0.340
     11 OR5         2.8060   15.8100   39.6360 O.3       1 SUB1       -0.340
     12 OR6         5.3380   15.0420   38.7980 O.3       1 SUB1       -0.392
     13 CY1         6.3130   14.7140   42.4970 C.3       1 SUB1        0.188
     14 CY2         6.7250   14.5970   43.9780 C.3       1 SUB1        0.133
     15 CY3         7.1890   15.9750   44.5430 C.3       1 SUB1        0.104
     16 CY4         8.4010   16.4410   43.7230 C.3       1 SUB1        0.064
     17 CY5         7.9420   16.5980   42.2270 C.3       1 SUB1        0.077
     18 CY6         9.0920   17.0460   41.3330 C.3       1 SUB1       -0.037
     19 OY2         5.6090   14.0910   44.6870 O.3       1 SUB1       -0.384
     20 OY3         7.5540   15.8200   45.8880 O.3       1 SUB1       -0.387
     21 NY4         8.9180   17.7790   44.2310 N.3       1 SUB1       -0.299
     22 OY5         7.4330   15.2750   41.7360 O.3       1 SUB1       -0.344
     23 CQ1        10.1330   17.7670   45.1890 C.3       1 SUB1        0.043
     24 CQ2        11.0100   19.0310   45.0140 C.3       1 SUB1        0.103
     25 OQ2        10.2460   20.1730   45.2200 O.3       1 SUB1       -0.386
     26 CQ3        11.6430   19.0470   43.5580 C.3       1 SUB1        0.118
     27 OQ3        12.4220   20.1860   43.3650 O.3       1 SUB1       -0.384
     28 CQ4        12.5380   17.7970   43.3200 C.3       1 SUB1        0.117
     29 OQ4        12.5650   17.4540   41.9440 O.3       1 SUB1       -0.331
     30 CQ5        12.0900   16.5230   44.1310 C.2       1 SUB1       -0.023
     31 CQ6        11.0110   16.5180   44.9660 C.2       1 SUB1       -0.085
     32 CQ7        12.8890   15.2640   43.9670 C.3       1 SUB1        0.072
     33 OQ7        14.0150   15.3750   44.8330 O.3       1 SUB1       -0.384
     34 CW1         1.6190   19.6350   37.1930 C.3       1 SUB1        0.185
     35 CW2         0.4540   18.9660   36.4990 C.3       1 SUB1        0.134
     36 CW3        -0.7720   18.9870   37.4790 C.3       1 SUB1        0.114
     37 CW4        -0.3160   18.1230   38.7000 C.3       1 SUB1        0.112
     38 CW5         0.8740   18.9220   39.3690 C.3       1 SUB1        0.113
     39 CW6         1.5720   18.2730   40.5510 C.3       1 SUB1        0.080
     40 OW2         0.1900   19.7020   35.3120 O.3       1 SUB1       -0.384
     41 OW3        -1.8450   18.3540   36.8410 O.3       1 SUB1       -0.386
     42 OW4        -1.3600   18.0570   39.6510 O.3       1 SUB1       -0.387
     43 OW5         1.9620   19.0260   38.4180 O.3       1 SUB1       -0.341
     44 OW1         2.7750   19.6470   36.3620 O.3       1 SUB1       -0.365
     45 CP1        13.5930   18.0970   41.2570 C.3       1 SUB1        0.190
     46 CP2        13.2510   18.3670   39.7830 C.3       1 SUB1        0.134
     47 CP3        13.2520   17.0980   38.9500 C.3       1 SUB1        0.114
     48 CP4        14.6480   16.4510   39.0370 C.3       1 SUB1        0.118
     49 CP5        14.8820   16.0930   40.5540 C.3       1 SUB1        0.113
     50 CP6        16.2430   15.4190   40.7880 C.3       1 SUB1        0.073
     51 OU2        11.9960   19.0300   39.7250 O.3       1 SUB1       -0.384
     52 OP3        12.9450   17.4380   37.6130 O.3       1 SUB1       -0.386
     53 OP4        14.6780   15.2600   38.2650 O.3       1 SUB1       -0.340
     54 OP5        14.8520   17.3390   41.3290 O.3       1 SUB1       -0.340
     55 OP6        17.3020   16.1850   40.2600 O.3       1 SUB1       -0.392
     56 CV1        15.7370   15.3410   37.2820 C.3       1 SUB1        0.188
     57 CV2        15.2470   15.1460   35.8220 C.3       1 SUB1        0.134
     58 CV3        14.6760   13.7200   35.6590 C.3       1 SUB1        0.114
     59 CV4        15.8120   12.7360   35.9550 C.3       1 SUB1        0.112
     60 CV5        16.2850   12.9460   37.4430 C.3       1 SUB1        0.113
     61 CV6        17.4390   11.9950   37.7910 C.3       1 SUB1        0.073
     62 OV2        14.2480   16.1160   35.5580 O.3       1 SUB1       -0.384
     63 OV3        14.2330   13.5540   34.3240 O.3       1 SUB1       -0.386
     64 OV4        15.3260   11.4100   35.8030 O.3       1 SUB1       -0.387
     65 OV5        16.7560   14.3150   37.5770 O.3       1 SUB1       -0.340
     66 OV6        17.0400   10.6470   37.6770 O.3       1 SUB1       -0.392
     67 H11         0.6923   15.6337   39.7256 H         1 SUB1        0.094
     68 H21         1.7523   13.6347   40.9630 H         1 SUB1        0.067
     69 H31         2.5601   16.0131   42.8615 H         1 SUB1        0.065
     70 H41         4.2934   14.1105   41.1296 H         1 SUB1        0.065
     71 H51         3.7807   17.1474   40.8961 H         1 SUB1        0.065
     72 H61         6.0805   16.3703   40.1684 H         1 SUB1        0.058
     73 H62         5.0895   17.0742   38.8458 H         1 SUB1        0.058
     74 H81         0.2056   15.4379   42.5631 H         1 SUB1        0.210
     75 H91         3.6796   14.2753   43.9681 H         1 SUB1        0.210
     76 H121        4.5725   14.9149   38.2500 H         1 SUB1        0.209
     77 H131        6.0767   13.7136   42.1055 H         1 SUB1        0.094
     78 H141        7.5604   13.8869   44.0667 H         1 SUB1        0.067
     79 H151        6.3753   16.7107   44.4614 H         1 SUB1        0.064
     80 H161        9.2029   15.6912   43.7921 H         1 SUB1        0.051
     81 H171        7.1360   17.3448   42.1756 H         1 SUB1        0.061
     82 H181        8.7344   17.1448   40.2975 H         1 SUB1        0.025
     83 H182        9.8993   16.2999   41.3725 H         1 SUB1        0.025
     84 H183        9.4724   18.0167   41.6837 H         1 SUB1        0.025
     85 H191        4.8860   14.7032   44.6160 H         1 SUB1        0.210
     86 H201        6.7997   15.5318   46.3885 H         1 SUB1        0.210
     87 H211        8.1037   18.2629   44.7498 H         1 SUB1        0.124
     88 H231        9.7519   17.7470   46.2207 H         1 SUB1        0.056
     89 H241       11.8221   19.0081   45.7556 H         1 SUB1        0.065
     90 H251       10.7925   20.9423   45.1105 H         1 SUB1        0.210
     91 H261       10.8243   19.0449   42.8233 H         1 SUB1        0.067
     92 H271       11.8813   20.9599   43.4714 H         1 SUB1        0.210
     93 H281       13.5586   18.0581   43.6365 H         1 SUB1        0.077
     94 H311       10.7604   15.5992   45.4942 H         1 SUB1        0.026
     95 H321       13.2224   15.1603   42.9239 H         1 SUB1        0.071
     96 H322       12.2812   14.3907   44.2463 H         1 SUB1        0.071
     97 H331       14.5491   14.5930   44.7580 H         1 SUB1        0.213
     98 H341        1.3275   20.6754   37.3994 H         1 SUB1        0.094
     99 H351        0.7041   17.9258   36.2432 H         1 SUB1        0.067
    100 H361       -1.0400   20.0100   37.7816 H         1 SUB1        0.065
    101 H371       -0.0059   17.1161   38.3838 H         1 SUB1        0.065
    102 H381        0.4999   19.9144   39.6608 H         1 SUB1        0.065
    103 H391        2.6257   18.2226   40.2394 H         1 SUB1        0.059
    104 H392        1.4635   19.0115   41.3590 H         1 SUB1        0.059
    105 H401        0.9507   19.6681   34.7439 H         1 SUB1        0.210
    106 H411       -2.5657   18.2611   37.4530 H         1 SUB1        0.210
    107 H421       -2.0944   17.5815   39.2809 H         1 SUB1        0.210
    108 H441        2.5619   20.0546   35.5308 H         1 SUB1        0.213
    109 H451       13.7537   19.0688   41.7467 H         1 SUB1        0.094
    110 H461       14.0176   19.0384   39.3688 H         1 SUB1        0.067
    111 H471       12.4969   16.3964   39.3343 H         1 SUB1        0.065
    112 H481       15.4193   17.1493   38.6800 H         1 SUB1        0.065
    113 H491       14.0816   15.4193   40.8938 H         1 SUB1        0.065
    114 H501       16.2403   14.4321   40.3022 H         1 SUB1        0.058
    115 H502       16.3979   15.2947   41.8699 H         1 SUB1        0.058
    116 H511       11.8030   19.2619   38.8242 H         1 SUB1        0.210
    117 H521       12.9555   16.6534   37.0775 H         1 SUB1        0.210
    118 H551       17.3141   17.0376   40.6788 H         1 SUB1        0.209
    119 H561       16.1977   16.3369   37.3591 H         1 SUB1        0.094
    120 H571       16.0871   15.2835   35.1254 H         1 SUB1        0.067
    121 H581       13.8401   13.5582   36.3554 H         1 SUB1        0.065
    122 H591       16.6509   12.9096   35.2651 H         1 SUB1        0.065
    123 H601       15.4425   12.7675   38.1273 H         1 SUB1        0.065
    124 H611       17.7633   12.1871   38.8244 H         1 SUB1        0.058
    125 H612       18.2770   12.1807   37.1031 H         1 SUB1        0.058
    126 H621       13.5276   16.0008   36.1665 H         1 SUB1        0.210
    127 H631       13.9189   12.6655   34.2039 H         1 SUB1        0.210
    128 H641       16.0198   10.7942   36.0078 H         1 SUB1        0.210
    129 H661       16.7625   10.4744   36.7850 H         1 SUB1        0.209
@<TRIPOS>BOND
     1    1    2 1  
     2    7    1 1  
     3    1   11 1  
     4    2    3 1  
     5    2    8 1  
     6    3    4 1  
     7    3    9 1  
     8    5    4 1  
     9    4   10 1  
    10    5    6 1  
    11   11    5 1  
    12    6   12 1  
    13   39    7 1  
    14   10   13 1  
    15   13   14 1  
    16   13   22 1  
    17   14   15 1  
    18   14   19 1  
    19   15   16 1  
    20   15   20 1  
    21   17   16 1  
    22   16   21 1  
    23   17   18 1  
    24   22   17 1  
    25   21   23 1  
    26   23   24 1  
    27   23   31 1  
    28   24   25 1  
    29   24   26 1  
    30   26   27 1  
    31   26   28 1  
    32   28   29 1  
    33   30   28 1  
    34   29   45 1  
    35   31   30 2  
    36   30   32 1  
    37   32   33 1  
    38   35   34 1  
    39   34   43 1  
    40   34   44 1  
    41   36   35 1  
    42   35   40 1  
    43   37   36 1  
    44   36   41 1  
    45   38   37 1  
    46   37   42 1  
    47   38   39 1  
    48   38   43 1  
    49   45   46 1  
    50   45   54 1  
    51   46   47 1  
    52   46   51 1  
    53   47   48 1  
    54   47   52 1  
    55   48   49 1  
    56   48   53 1  
    57   49   50 1  
    58   49   54 1  
    59   50   55 1  
    60   53   56 1  
    61   56   57 1  
    62   56   65 1  
    63   57   58 1  
    64   57   62 1  
    65   58   59 1  
    66   58   63 1  
    67   59   60 1  
    68   59   64 1  
    69   60   61 1  
    70   60   65 1  
    71   61   66 1  
    72    1   67 1  
    73    2   68 1  
    74    3   69 1  
    75    4   70 1  
    76    5   71 1  
    77    6   72 1  
    78    6   73 1  
    79    8   74 1  
    80    9   75 1  
    81   12   76 1  
    82   13   77 1  
    83   14   78 1  
    84   15   79 1  
    85   16   80 1  
    86   17   81 1  
    87   18   82 1  
    88   18   83 1  
    89   18   84 1  
    90   19   85 1  
    91   20   86 1  
    92   21   87 1  
    93   23   88 1  
    94   24   89 1  
    95   25   90 1  
    96   26   91 1  
    97   27   92 1  
    98   28   93 1  
    99   31   94 1  
   100   32   95 1  
   101   32   96 1  
   102   33   97 1  
   103   34   98 1  
   104   35   99 1  
   105   36  100 1  
   106   37  101 1  
   107   38  102 1  
   108   39  103 1  
   109   39  104 1  
   110   40  105 1  
   111   41  106 1  
   112   42  107 1  
   113   44  108 1  
   114   45  109 1  
   115   46  110 1  
   116   47  111 1  
   117   48  112 1  
   118   49  113 1  
   119   50  114 1  
   120   50  115 1  
   121   51  116 1  
   122   52  117 1  
   123   55  118 1  
   124   56  119 1  
   125   57  120 1  
   126   58  121 1  
   127   59  122 1  
   128   60  123 1  
   129   61  124 1  
   130   61  125 1  
   131   62  126 1  
   132   63  127 1  
   133   64  128 1  
   134   66  129 1  
@<TRIPOS>SUBSTRUCTURE
     1 SUB1        1 GROUP

