1xd1_ligand
  -I-interpret- 

129134  0  0  0  0  0  0  0  0999 V2000
    1.5360   15.7710   40.4180 C   0  0  0  0  0
    1.5730   14.6060   41.4470 C   0  0  0  0  0
    2.7720   15.0360   42.4030 C   0  0  0  0  0
    4.0900   15.1000   41.5650 C   0  0  0  0  0
    3.9420   16.1600   40.4390 C   0  0  0  0  0
    5.1900   16.2260   39.5390 C   0  0  0  0  0
    1.3470   17.0220   41.1990 O   0  0  0  0  0
    0.3740   14.5750   42.2030 O   0  0  0  0  0
    2.9460   14.0380   43.4130 O   0  0  0  0  0
    5.1990   15.5120   42.3830 O   0  0  0  0  0
    2.8060   15.8100   39.6360 O   0  0  0  0  0
    5.3380   15.0420   38.7980 O   0  0  0  0  0
    6.3130   14.7140   42.4970 C   0  0  0  0  0
    6.7250   14.5970   43.9780 C   0  0  0  0  0
    7.1890   15.9750   44.5430 C   0  0  0  0  0
    8.4010   16.4410   43.7230 C   0  0  0  0  0
    7.9420   16.5980   42.2270 C   0  0  0  0  0
    9.0920   17.0460   41.3330 C   0  0  0  0  0
    5.6090   14.0910   44.6870 O   0  0  0  0  0
    7.5540   15.8200   45.8880 O   0  0  0  0  0
    8.9180   17.7790   44.2310 N   0  0  0  0  0
    7.4330   15.2750   41.7360 O   0  0  0  0  0
   10.1330   17.7670   45.1890 C   0  0  0  0  0
   11.0100   19.0310   45.0140 C   0  0  0  0  0
   10.2460   20.1730   45.2200 O   0  0  0  0  0
   11.6430   19.0470   43.5580 C   0  0  0  0  0
   12.4220   20.1860   43.3650 O   0  0  0  0  0
   12.5380   17.7970   43.3200 C   0  0  0  0  0
   12.5650   17.4540   41.9440 O   0  0  0  0  0
   12.0900   16.5230   44.1310 C   0  0  0  0  0
   11.0110   16.5180   44.9660 C   0  0  0  0  0
   12.8890   15.2640   43.9670 C   0  0  0  0  0
   14.0150   15.3750   44.8330 O   0  0  0  0  0
    1.6190   19.6350   37.1930 C   0  0  0  0  0
    0.4540   18.9660   36.4990 C   0  0  0  0  0
   -0.7720   18.9870   37.4790 C   0  0  0  0  0
   -0.3160   18.1230   38.7000 C   0  0  0  0  0
    0.8740   18.9220   39.3690 C   0  0  0  0  0
    1.5720   18.2730   40.5510 C   0  0  0  0  0
    0.1900   19.7020   35.3120 O   0  0  0  0  0
   -1.8450   18.3540   36.8410 O   0  0  0  0  0
   -1.3600   18.0570   39.6510 O   0  0  0  0  0
    1.9620   19.0260   38.4180 O   0  0  0  0  0
    2.7750   19.6470   36.3620 O   0  0  0  0  0
   13.5930   18.0970   41.2570 C   0  0  0  0  0
   13.2510   18.3670   39.7830 C   0  0  0  0  0
   13.2520   17.0980   38.9500 C   0  0  0  0  0
   14.6480   16.4510   39.0370 C   0  0  0  0  0
   14.8820   16.0930   40.5540 C   0  0  0  0  0
   16.2430   15.4190   40.7880 C   0  0  0  0  0
   11.9960   19.0300   39.7250 O   0  0  0  0  0
   12.9450   17.4380   37.6130 O   0  0  0  0  0
   14.6780   15.2600   38.2650 O   0  0  0  0  0
   14.8520   17.3390   41.3290 O   0  0  0  0  0
   17.3020   16.1850   40.2600 O   0  0  0  0  0
   15.7370   15.3410   37.2820 C   0  0  0  0  0
   15.2470   15.1460   35.8220 C   0  0  0  0  0
   14.6760   13.7200   35.6590 C   0  0  0  0  0
   15.8120   12.7360   35.9550 C   0  0  0  0  0
   16.2850   12.9460   37.4430 C   0  0  0  0  0
   17.4390   11.9950   37.7910 C   0  0  0  0  0
   14.2480   16.1160   35.5580 O   0  0  0  0  0
   14.2330   13.5540   34.3240 O   0  0  0  0  0
   15.3260   11.4100   35.8030 O   0  0  0  0  0
   16.7560   14.3150   37.5770 O   0  0  0  0  0
   17.0400   10.6470   37.6770 O   0  0  0  0  0
    0.6923   15.6337   39.7256 H   0  0  0  0  0
    1.7523   13.6347   40.9630 H   0  0  0  0  0
    2.5601   16.0131   42.8615 H   0  0  0  0  0
    4.2934   14.1105   41.1296 H   0  0  0  0  0
    3.7807   17.1474   40.8961 H   0  0  0  0  0
    6.0805   16.3703   40.1684 H   0  0  0  0  0
    5.0895   17.0742   38.8458 H   0  0  0  0  0
    0.2056   15.4379   42.5631 H   0  0  0  0  0
    3.6796   14.2753   43.9681 H   0  0  0  0  0
    4.5725   14.9149   38.2500 H   0  0  0  0  0
    6.0767   13.7136   42.1055 H   0  0  0  0  0
    7.5604   13.8869   44.0667 H   0  0  0  0  0
    6.3753   16.7107   44.4614 H   0  0  0  0  0
    9.2029   15.6912   43.7921 H   0  0  0  0  0
    7.1360   17.3448   42.1756 H   0  0  0  0  0
    8.7344   17.1448   40.2975 H   0  0  0  0  0
    9.8993   16.2999   41.3725 H   0  0  0  0  0
    9.4724   18.0167   41.6837 H   0  0  0  0  0
    4.8860   14.7032   44.6160 H   0  0  0  0  0
    6.7997   15.5318   46.3885 H   0  0  0  0  0
    8.1037   18.2629   44.7498 H   0  0  0  0  0
    9.7519   17.7470   46.2207 H   0  0  0  0  0
   11.8221   19.0081   45.7556 H   0  0  0  0  0
   10.7925   20.9423   45.1105 H   0  0  0  0  0
   10.8243   19.0449   42.8233 H   0  0  0  0  0
   11.8813   20.9599   43.4714 H   0  0  0  0  0
   13.5586   18.0581   43.6365 H   0  0  0  0  0
   10.7604   15.5992   45.4942 H   0  0  0  0  0
   13.2224   15.1603   42.9239 H   0  0  0  0  0
   12.2812   14.3907   44.2463 H   0  0  0  0  0
   14.5491   14.5930   44.7580 H   0  0  0  0  0
    1.3275   20.6754   37.3994 H   0  0  0  0  0
    0.7041   17.9258   36.2432 H   0  0  0  0  0
   -1.0400   20.0100   37.7816 H   0  0  0  0  0
   -0.0059   17.1161   38.3838 H   0  0  0  0  0
    0.4999   19.9144   39.6608 H   0  0  0  0  0
    2.6257   18.2226   40.2394 H   0  0  0  0  0
    1.4635   19.0115   41.3590 H   0  0  0  0  0
    0.9507   19.6681   34.7439 H   0  0  0  0  0
   -2.5657   18.2611   37.4530 H   0  0  0  0  0
   -2.0944   17.5815   39.2809 H   0  0  0  0  0
    2.5619   20.0546   35.5308 H   0  0  0  0  0
   13.7537   19.0688   41.7467 H   0  0  0  0  0
   14.0176   19.0384   39.3688 H   0  0  0  0  0
   12.4969   16.3964   39.3343 H   0  0  0  0  0
   15.4193   17.1493   38.6800 H   0  0  0  0  0
   14.0816   15.4193   40.8938 H   0  0  0  0  0
   16.2403   14.4321   40.3022 H   0  0  0  0  0
   16.3979   15.2947   41.8699 H   0  0  0  0  0
   11.8030   19.2619   38.8242 H   0  0  0  0  0
   12.9555   16.6534   37.0775 H   0  0  0  0  0
   17.3141   17.0376   40.6788 H   0  0  0  0  0
   16.1977   16.3369   37.3591 H   0  0  0  0  0
   16.0871   15.2835   35.1254 H   0  0  0  0  0
   13.8401   13.5582   36.3554 H   0  0  0  0  0
   16.6509   12.9096   35.2651 H   0  0  0  0  0
   15.4425   12.7675   38.1273 H   0  0  0  0  0
   17.7633   12.1871   38.8244 H   0  0  0  0  0
   18.2770   12.1807   37.1031 H   0  0  0  0  0
   13.5276   16.0008   36.1665 H   0  0  0  0  0
   13.9189   12.6655   34.2039 H   0  0  0  0  0
   16.0198   10.7942   36.0078 H   0  0  0  0  0
   16.7625   10.4744   36.7850 H   0  0  0  0  0
  1  2  1  0  0  0
  7  1  1  0  0  0
  1 11  1  0  0  0
  2  3  1  0  0  0
  2  8  1  0  0  0
  3  4  1  0  0  0
  3  9  1  0  0  0
  5  4  1  0  0  0
  4 10  1  0  0  0
  5  6  1  0  0  0
 11  5  1  0  0  0
  6 12  1  0  0  0
 39  7  1  0  0  0
 10 13  1  0  0  0
 13 14  1  0  0  0
 13 22  1  0  0  0
 14 15  1  0  0  0
 14 19  1  0  0  0
 15 16  1  0  0  0
 15 20  1  0  0  0
 17 16  1  0  0  0
 16 21  1  0  0  0
 17 18  1  0  0  0
 22 17  1  0  0  0
 21 23  1  0  0  0
 23 24  1  0  0  0
 23 31  1  0  0  0
 24 25  1  0  0  0
 24 26  1  0  0  0
 26 27  1  0  0  0
 26 28  1  0  0  0
 28 29  1  0  0  0
 30 28  1  0  0  0
 29 45  1  0  0  0
 31 30  2  0  0  0
 30 32  1  0  0  0
 32 33  1  0  0  0
 35 34  1  0  0  0
 34 43  1  0  0  0
 34 44  1  0  0  0
 36 35  1  0  0  0
 35 40  1  0  0  0
 37 36  1  0  0  0
 36 41  1  0  0  0
 38 37  1  0  0  0
 37 42  1  0  0  0
 38 39  1  0  0  0
 38 43  1  0  0  0
 45 46  1  0  0  0
 45 54  1  0  0  0
 46 47  1  0  0  0
 46 51  1  0  0  0
 47 48  1  0  0  0
 47 52  1  0  0  0
 48 49  1  0  0  0
 48 53  1  0  0  0
 49 50  1  0  0  0
 49 54  1  0  0  0
 50 55  1  0  0  0
 53 56  1  0  0  0
 56 57  1  0  0  0
 56 65  1  0  0  0
 57 58  1  0  0  0
 57 62  1  0  0  0
 58 59  1  0  0  0
 58 63  1  0  0  0
 59 60  1  0  0  0
 59 64  1  0  0  0
 60 61  1  0  0  0
 60 65  1  0  0  0
 61 66  1  0  0  0
  1 67  1  0  0  0
  2 68  1  0  0  0
  3 69  1  0  0  0
  4 70  1  0  0  0
  5 71  1  0  0  0
  6 72  1  0  0  0
  6 73  1  0  0  0
  8 74  1  0  0  0
  9 75  1  0  0  0
 12 76  1  0  0  0
 13 77  1  0  0  0
 14 78  1  0  0  0
 15 79  1  0  0  0
 16 80  1  0  0  0
 17 81  1  0  0  0
 18 82  1  0  0  0
 18 83  1  0  0  0
 18 84  1  0  0  0
 19 85  1  0  0  0
 20 86  1  0  0  0
 21 87  1  0  0  0
 23 88  1  0  0  0
 24 89  1  0  0  0
 25 90  1  0  0  0
 26 91  1  0  0  0
 27 92  1  0  0  0
 28 93  1  0  0  0
 31 94  1  0  0  0
 32 95  1  0  0  0
 32 96  1  0  0  0
 33 97  1  0  0  0
 34 98  1  0  0  0
 35 99  1  0  0  0
 36100  1  0  0  0
 37101  1  0  0  0
 38102  1  0  0  0
 39103  1  0  0  0
 39104  1  0  0  0
 40105  1  0  0  0
 41106  1  0  0  0
 42107  1  0  0  0
 44108  1  0  0  0
 45109  1  0  0  0
 46110  1  0  0  0
 47111  1  0  0  0
 48112  1  0  0  0
 49113  1  0  0  0
 50114  1  0  0  0
 50115  1  0  0  0
 51116  1  0  0  0
 52117  1  0  0  0
 55118  1  0  0  0
 56119  1  0  0  0
 57120  1  0  0  0
 58121  1  0  0  0
 59122  1  0  0  0
 60123  1  0  0  0
 61124  1  0  0  0
 61125  1  0  0  0
 62126  1  0  0  0
 63127  1  0  0  0
 64128  1  0  0  0
 66129  1  0  0  0
M  END
$$$$
