2cc7_ligand
  -I-interpret- 

 28 30  0  0  0  0  0  0  0  0999 V2000
    0.2070   22.2550   -2.7100 N   0  0  0  0  0
   -0.4750   21.9390   -3.8170 C   0  0  0  0  0
    0.7220   21.2480   -1.9280 C   0  0  0  0  0
   -0.9670   22.8540   -4.5400 O   0  0  0  0  0
   -0.6730   20.6330   -4.1860 N   0  0  0  0  0
   -0.2170   19.5850   -3.4590 C   0  0  0  0  0
   -0.4190   18.4070   -3.8510 O   0  0  0  0  0
    0.5090   19.8370   -2.2980 C   0  0  0  0  0
    1.0080   18.8350   -1.5190 N   0  0  0  0  0
    1.7090   19.1710   -0.4120 C   0  0  0  0  0
    2.2300   18.1530    0.4000 C   0  0  0  0  0
    1.9180   20.5130   -0.0550 C   0  0  0  0  0
    2.9590   18.4810    1.5380 C   0  0  0  0  0
    3.5300   17.3450    2.3830 C   0  0  0  0  0
    3.1660   19.7970    1.8860 C   0  0  0  0  0
    3.9580   20.1230    3.1450 C   0  0  0  0  0
    2.6350   20.8350    1.1030 C   0  0  0  0  0
    1.4330   21.5120   -0.8200 N   0  0  0  0  0
    0.3433   23.2316   -2.4492 H   0  0  0  0  0
   -1.1866   20.4423   -5.0464 H   0  0  0  0  0
    2.0640   17.1076    0.1398 H   0  0  0  0  0
    2.7154   16.7162    2.7423 H   0  0  0  0  0
    4.2104   16.7484    1.7753 H   0  0  0  0  0
    4.0706   17.7621    3.2326 H   0  0  0  0  0
    4.8268   20.7257    2.8803 H   0  0  0  0  0
    3.3254   20.6792    3.8368 H   0  0  0  0  0
    4.2867   19.1966    3.6160 H   0  0  0  0  0
    2.7792   21.8758    1.3929 H   0  0  0  0  0
  1  2  1  0  0  0
  1  3  1  0  0  0
  2  4  2  0  0  0
  2  5  1  0  0  0
  3  8  4  0  0  0
  3 18  4  0  0  0
  5  6  1  0  0  0
  6  7  2  0  0  0
  6  8  1  0  0  0
  8  9  4  0  0  0
  9 10  4  0  0  0
 10 11  4  0  0  0
 10 12  4  0  0  0
 11 13  4  0  0  0
 12 17  4  0  0  0
 12 18  4  0  0  0
 13 14  1  0  0  0
 13 15  4  0  0  0
 15 16  1  0  0  0
 15 17  4  0  0  0
  1 19  1  0  0  0
  5 20  1  0  0  0
 11 21  1  0  0  0
 14 22  1  0  0  0
 14 23  1  0  0  0
 14 24  1  0  0  0
 16 25  1  0  0  0
 16 26  1  0  0  0
 16 27  1  0  0  0
 17 28  1  0  0  0
M  END
$$$$
