### 
### Created by X-TOOL on Sun Jun  3 11:18:57 2007
### 

@<TRIPOS>MOLECULE
2cc7_ligand
   28    30     1     0     0
SMALL
GAST_HUCK


@<TRIPOS>ATOM
      1 N1          0.2070   22.2550   -2.7100 N.am      1 SUB1       -0.188
      2 C2         -0.4750   21.9390   -3.8170 C.2       1 SUB1        0.326
      3 C10         0.7220   21.2480   -1.9280 C.ar      1 SUB1        0.186
      4 O2         -0.9670   22.8540   -4.5400 O.2       1 SUB1       -0.380
      5 N3         -0.6730   20.6330   -4.1860 N.am      1 SUB1       -0.176
      6 C4         -0.2170   19.5850   -3.4590 C.2       1 SUB1        0.256
      7 O4         -0.4190   18.4070   -3.8510 O.2       1 SUB1       -0.373
      8 C4A         0.5090   19.8370   -2.2980 C.ar      1 SUB1        0.181
      9 N5          1.0080   18.8350   -1.5190 N.ar      1 SUB1       -0.262
     10 C5A         1.7090   19.1710   -0.4120 C.ar      1 SUB1        0.056
     11 C6          2.2300   18.1530    0.4000 C.ar      1 SUB1       -0.039
     12 C9A         1.9180   20.5130   -0.0550 C.ar      1 SUB1        0.041
     13 C7          2.9590   18.4810    1.5380 C.ar      1 SUB1       -0.034
     14 C7M         3.5300   17.3450    2.3830 C.3       1 SUB1       -0.030
     15 C8          3.1660   19.7970    1.8860 C.ar      1 SUB1       -0.034
     16 C8M         3.9580   20.1230    3.1450 C.3       1 SUB1       -0.029
     17 C9          2.6350   20.8350    1.1030 C.ar      1 SUB1       -0.043
     18 N10         1.4330   21.5120   -0.8200 N.ar      1 SUB1       -0.273
     19 H           0.3433   23.2316   -2.4492 H         1 SUB1        0.239
     20 H          -1.1866   20.4423   -5.0464 H         1 SUB1        0.227
     21 H           2.0640   17.1076    0.1398 H         1 SUB1        0.057
     22 H           2.7154   16.7162    2.7423 H         1 SUB1        0.039
     23 H           4.2104   16.7484    1.7753 H         1 SUB1        0.039
     24 H           4.0706   17.7621    3.2326 H         1 SUB1        0.039
     25 H           4.8268   20.7257    2.8803 H         1 SUB1        0.040
     26 H           3.3254   20.6792    3.8368 H         1 SUB1        0.040
     27 H           4.2867   19.1966    3.6160 H         1 SUB1        0.040
     28 H           2.7792   21.8758    1.3929 H         1 SUB1        0.053
@<TRIPOS>BOND
     1    1    2 am 
     2    1    3 1  
     3    2    4 2  
     4    2    5 am 
     5    3    8 ar 
     6    3   18 ar 
     7    5    6 am 
     8    6    7 2  
     9    6    8 1  
    10    8    9 ar 
    11    9   10 ar 
    12   10   11 ar 
    13   10   12 ar 
    14   11   13 ar 
    15   12   17 ar 
    16   12   18 ar 
    17   13   14 1  
    18   13   15 ar 
    19   15   16 1  
    20   15   17 ar 
    21    1   19 1  
    22    5   20 1  
    23   11   21 1  
    24   14   22 1  
    25   14   23 1  
    26   14   24 1  
    27   16   25 1  
    28   16   26 1  
    29   16   27 1  
    30   17   28 1  
@<TRIPOS>SUBSTRUCTURE
     1 SUB1        1 GROUP

