1w0y_ligand
  -I-interpret- 

 59 61  0  0  0  0  0  0  0  0999 V2000
   29.8940    6.6810   15.0960 C   0  3  0  0  0
   29.3940    7.6860   15.8290 N   0  0  0  0  0
   30.2260    5.5920   15.8250 N   0  0  0  0  0
   30.2090    6.9370   13.6710 C   0  0  0  0  0
   29.4770    7.9530   12.9940 C   0  0  0  0  0
   29.6280    8.1420   11.6330 C   0  0  0  0  0
   30.5090    7.3190   10.9230 C   0  0  0  0  0
   30.7790    7.5770    9.5560 N   0  0  0  0  0
   31.7020    6.6900    8.7660 C   0  0  0  0  0
   38.1770    7.7270    9.5410 C   0  0  0  0  0
   38.4750    6.9510   10.7710 C   0  0  0  0  0
   37.7260    7.0730   11.9080 C   0  0  0  0  0
   38.0040    6.3000   13.0250 C   0  0  0  0  0
   39.0420    5.3970   13.0020 C   0  0  0  0  0
   39.5050    6.0500   10.7570 C   0  0  0  0  0
   39.7920    5.2820   11.8540 C   0  0  0  0  0
   33.1490    7.1280    8.8990 C   0  0  0  0  0
   35.4970    6.6340    9.4050 C   0  0  0  0  0
   34.2010    6.2070    9.1790 C   0  0  0  0  0
   33.9440    4.8440    9.3400 N   0  0  0  0  0
   33.7020    3.8520    7.9700 S   0  0  0  0  0
   35.3440    3.5370    7.3820 C   0  0  0  0  0
   32.9530    4.5850    6.9730 O   0  0  0  0  0
   33.1670    2.5920    8.3100 O   0  0  0  0  0
   35.7830    8.0010    9.3180 C   0  0  0  0  0
   37.0110    8.5270    9.6310 O   0  0  0  0  0
   33.4640    8.5070    8.7960 C   0  0  0  0  0
   34.7970    8.9390    8.9920 C   0  0  0  0  0
   35.2390   10.2440    8.7780 O   0  0  0  0  0
   34.3570   11.2760    8.3370 C   0  0  0  0  0
   31.2490    6.3180   11.5960 C   0  0  0  0  0
   31.1120    6.1260   12.9430 C   0  0  0  0  0
   29.1083    8.5639   15.3723 H   0  0  0  0  0
   29.2956    7.5802   16.8488 H   0  0  0  0  0
   30.6198    4.7615   15.3601 H   0  0  0  0  0
   30.0852    5.5928   16.8453 H   0  0  0  0  0
   28.7946    8.5846   13.5511 H   0  0  0  0  0
   29.0705    8.9186   11.1219 H   0  0  0  0  0
   30.3360    8.3850    9.0958 H   0  0  0  0  0
   31.4134    6.7294    7.7053 H   0  0  0  0  0
   31.6065    5.6578    9.1340 H   0  0  0  0  0
   38.0472    7.0194    8.7089 H   0  0  0  0  0
   39.0328    8.3858    9.3321 H   0  0  0  0  0
   36.9061    7.7815   11.9367 H   0  0  0  0  0
   37.4014    6.4074   13.9197 H   0  0  0  0  0
   39.2645    4.7883   13.8709 H   0  0  0  0  0
   40.1050    5.9422    9.8607 H   0  0  0  0  0
   40.6159    4.5785   11.8177 H   0  0  0  0  0
   36.2780    5.9217    9.6455 H   0  0  0  0  0
   33.9016    4.4483   10.2574 H   0  0  0  0  0
   35.2970    2.8971    6.4885 H   0  0  0  0  0
   35.9234    3.0288    8.1669 H   0  0  0  0  0
   35.8307    4.4895    7.1256 H   0  0  0  0  0
   32.6866    9.2272    8.5680 H   0  0  0  0  0
   34.9163   12.2178    8.2356 H   0  0  0  0  0
   33.5491   11.4067    9.0719 H   0  0  0  0  0
   33.9260   10.9989    7.3636 H   0  0  0  0  0
   31.9351    5.6937   11.0351 H   0  0  0  0  0
   31.6893    5.3602   13.4482 H   0  0  0  0  0
  1  2  1  0  0  0
  1  3  1  0  0  0
  4  1  1  0  0  0
  5  4  4  0  0  0
  4 32  4  0  0  0
  6  5  4  0  0  0
  7  6  4  0  0  0
  8  7  1  0  0  0
  7 31  4  0  0  0
  9  8  1  0  0  0
 17  9  1  0  0  0
 10 11  1  0  0  0
 26 10  1  0  0  0
 11 12  4  0  0  0
 11 15  4  0  0  0
 12 13  4  0  0  0
 13 14  4  0  0  0
 16 14  4  0  0  0
 15 16  4  0  0  0
 19 17  4  0  0  0
 17 27  4  0  0  0
 18 19  4  0  0  0
 25 18  4  0  0  0
 19 20  1  0  0  0
 20 21  1  0  0  0
 21 22  1  0  0  0
 21 23  2  0  0  0
 21 24  2  0  0  0
 25 26  1  0  0  0
 25 28  4  0  0  0
 27 28  4  0  0  0
 28 29  1  0  0  0
 29 30  1  0  0  0
 31 32  4  0  0  0
  2 33  1  0  0  0
  2 34  1  0  0  0
  3 35  1  0  0  0
  3 36  1  0  0  0
  5 37  1  0  0  0
  6 38  1  0  0  0
  8 39  1  0  0  0
  9 40  1  0  0  0
  9 41  1  0  0  0
 10 42  1  0  0  0
 10 43  1  0  0  0
 12 44  1  0  0  0
 13 45  1  0  0  0
 14 46  1  0  0  0
 15 47  1  0  0  0
 16 48  1  0  0  0
 18 49  1  0  0  0
 20 50  1  0  0  0
 22 51  1  0  0  0
 22 52  1  0  0  0
 22 53  1  0  0  0
 27 54  1  0  0  0
 30 55  1  0  0  0
 30 56  1  0  0  0
 30 57  1  0  0  0
 31 58  1  0  0  0
 32 59  1  0  0  0
M  END
$$$$
