1k22_ligand
  -I-interpret- 

 63 65  0  0  0  0  0  0  0  0999 V2000
   17.9863  -13.7954   24.9342 H   0  0  0  0  0
   19.5863  -16.4021   24.6371 H   0  0  0  0  0
   17.9213  -16.2282   25.2886 H   0  0  0  0  0
   19.6905  -16.5052   27.0973 H   0  0  0  0  0
   18.7619  -14.9745   27.2434 H   0  0  0  0  0
   21.5506  -15.3034   25.9720 H   0  0  0  0  0
   21.1900  -14.5322   27.5538 H   0  0  0  0  0
   21.5368  -12.7877   25.7850 H   0  0  0  0  0
   19.8373  -12.7579   26.3659 H   0  0  0  0  0
   19.9276  -12.6533   23.8511 H   0  0  0  0  0
   20.8408  -14.1999   23.8204 H   0  0  0  0  0
   16.3021  -15.0205   23.3963 H   0  0  0  0  0
   17.2656  -16.3419   23.5840 H   0  0  0  0  0
   19.0494  -15.1834   22.3668 H   0  0  0  0  0
   18.4641  -10.7526   21.0499 H   0  0  0  0  0
   16.4015   -9.9293   20.3719 H   0  0  0  0  0
   14.7200  -11.9777   18.9867 H   0  0  0  0  0
   14.5274  -10.2042   18.7762 H   0  0  0  0  0
   13.5583   -8.8377   20.4736 H   0  0  0  0  0
   11.9422   -8.7245   22.3920 H   0  0  0  0  0
   12.3142  -13.0157   22.9416 H   0  0  0  0  0
   13.9374  -13.1107   21.0038 H   0  0  0  0  0
   10.2823   -9.5734   25.3550 H   0  0  0  0  0
   11.4960   -8.7806   24.3153 H   0  0  0  0  0
   10.4741  -12.7615   23.6939 H   0  0  0  0  0
    9.6933  -11.8241   24.9956 H   0  0  0  0  0
   20.5644  -11.2068   20.1456 H   0  0  0  0  0
   19.7576  -11.9897   18.7446 H   0  0  0  0  0
   19.7208  -14.1564   19.9166 H   0  0  0  0  0
   20.7133  -13.4194   21.2199 H   0  0  0  0  0
   17.0344  -17.0758   21.4933 H   0  0  0  0  0
   16.6435  -15.4246   20.9038 H   0  0  0  0  0
   18.7400  -14.4090   24.4190 C   0  0  0  0  0
   18.9060  -15.7460   25.2000 C   0  0  0  0  0
   19.4890  -15.5290   26.6320 C   0  0  0  0  0
   20.8110  -14.7180   26.5380 C   0  0  0  0  0
   20.5890  -13.3450   25.8180 C   0  0  0  0  0
   20.0880  -13.6120   24.3660 C   0  0  0  0  0
   17.0410  -15.5660   22.9810 N   0  3  0  0  0
   18.2480  -14.6920   22.9380 C   0  0  0  0  0
   17.8690  -13.4020   22.2810 C   0  0  0  0  0
   16.8270  -12.7900   22.6660 O   0  0  0  0  0
   18.6150  -12.9120   21.2930 N   0  0  0  0  0
   18.4550  -11.6940   20.4810 C   0  0  0  0  0
   17.0860  -11.8150   19.8150 C   0  0  0  0  0
   16.8180  -12.8260   19.1830 O   0  0  0  0  0
   16.1420  -10.7990   19.9520 N   0  0  0  0  0
   14.7890  -11.0010   19.4880 C   0  0  0  0  0
   13.8470  -10.9690   20.6190 C   0  0  0  0  0
   13.2900   -9.7430   21.0060 C   0  0  0  0  0
   12.3680   -9.6780   22.1010 C   0  0  0  0  0
   12.0130  -10.8460   22.8000 C   0  0  0  0  0
   12.5810  -12.1100   22.4090 C   0  0  0  0  0
   13.5050  -12.1640   21.3070 C   0  0  0  0  0
   11.1080  -10.7790   23.8690 C   0  3  0  0  0
   10.9490   -9.6150   24.5710 N   0  0  0  0  0
   10.3630  -11.8800   24.2150 N   0  0  0  0  0
   19.7830  -11.9190   19.8420 C   0  0  0  0  0
   19.8320  -13.2830   20.5760 C   0  0  0  0  0
   16.4900  -16.1470   21.7190 C   0  0  0  0  0
   14.9780  -16.4710   21.8140 C   0  0  0  0  0
   14.3890  -16.5990   23.0010 O   0  5  0  0  0
   14.2770  -16.6270   20.7220 O   0  0  0  0  0
 33  1  1  0  0  0
 34  2  1  0  0  0
 34  3  1  0  0  0
 35  4  1  0  0  0
 35  5  1  0  0  0
 36  6  1  0  0  0
 36  7  1  0  0  0
 37  8  1  0  0  0
 37  9  1  0  0  0
 38 10  1  0  0  0
 38 11  1  0  0  0
 39 12  1  0  0  0
 39 13  1  0  0  0
 40 14  1  0  0  0
 44 15  1  0  0  0
 47 16  1  0  0  0
 48 17  1  0  0  0
 48 18  1  0  0  0
 50 19  1  0  0  0
 51 20  1  0  0  0
 53 21  1  0  0  0
 54 22  1  0  0  0
 56 23  1  0  0  0
 56 24  1  0  0  0
 57 25  1  0  0  0
 57 26  1  0  0  0
 58 27  1  0  0  0
 58 28  1  0  0  0
 59 29  1  0  0  0
 59 30  1  0  0  0
 60 31  1  0  0  0
 60 32  1  0  0  0
 40 33  1  0  0  0
 33 38  1  0  0  0
 33 34  1  0  0  0
 34 35  1  0  0  0
 35 36  1  0  0  0
 37 36  1  0  0  0
 38 37  1  0  0  0
 39 40  1  0  0  0
 40 41  1  0  0  0
 41 43  1  0  0  0
 41 42  2  0  0  0
 43 59  1  0  0  0
 43 44  1  0  0  0
 44 58  1  0  0  0
 44 45  1  0  0  0
 45 47  1  0  0  0
 45 46  2  0  0  0
 47 48  1  0  0  0
 48 49  1  0  0  0
 49 54  4  0  0  0
 49 50  4  0  0  0
 50 51  4  0  0  0
 51 52  4  0  0  0
 52 55  1  0  0  0
 53 52  4  0  0  0
 54 53  4  0  0  0
 55 57  1  0  0  0
 55 56  1  0  0  0
 59 58  1  0  0  0
 39 60  1  0  0  0
 60 61  1  0  0  0
 61 63  2  0  0  0
 61 62  1  0  0  0
M  END
$$$$
