### 
### Created by X-TOOL on Mon Oct 24 23:18:35 2005
### 

@<TRIPOS>MOLECULE
1k22_ligand
   63    65     1     0     0
SMALL
GAST_HUCK


@<TRIPOS>ATOM
      1 H331       17.9863  -13.7954   24.9342 H         1 SUB1        0.038
      2 H341       19.5863  -16.4021   24.6371 H         1 SUB1        0.027
      3 H342       17.9213  -16.2282   25.2886 H         1 SUB1        0.027
      4 H351       19.6905  -16.5052   27.0973 H         1 SUB1        0.026
      5 H352       18.7619  -14.9745   27.2434 H         1 SUB1        0.026
      6 H361       21.5506  -15.3034   25.9720 H         1 SUB1        0.026
      7 H362       21.1900  -14.5322   27.5538 H         1 SUB1        0.026
      8 H371       21.5368  -12.7877   25.7850 H         1 SUB1        0.026
      9 H372       19.8373  -12.7579   26.3659 H         1 SUB1        0.026
     10 H381       19.9276  -12.6533   23.8511 H         1 SUB1        0.027
     11 H382       20.8408  -14.1999   23.8204 H         1 SUB1        0.027
     12 H391       16.3021  -15.0205   23.3963 H         1 SUB1        0.206
     13 H392       17.2656  -16.3419   23.5840 H         1 SUB1        0.206
     14 H401       19.0494  -15.1834   22.3668 H         1 SUB1        0.110
     15 H441       18.4641  -10.7526   21.0499 H         1 SUB1        0.080
     16 H471       16.4015   -9.9293   20.3719 H         1 SUB1        0.188
     17 H481       14.7200  -11.9777   18.9867 H         1 SUB1        0.068
     18 H482       14.5274  -10.2042   18.7762 H         1 SUB1        0.068
     19 H501       13.5583   -8.8377   20.4736 H         1 SUB1        0.056
     20 H511       11.9422   -8.7245   22.3920 H         1 SUB1        0.065
     21 H531       12.3142  -13.0157   22.9416 H         1 SUB1        0.065
     22 H541       13.9374  -13.1107   21.0038 H         1 SUB1        0.056
     23 H561       10.2823   -9.5734   25.3550 H         1 SUB1        0.192
     24 H562       11.4960   -8.7806   24.3153 H         1 SUB1        0.192
     25 H571       10.4741  -12.7615   23.6939 H         1 SUB1        0.192
     26 H572        9.6933  -11.8241   24.9956 H         1 SUB1        0.192
     27 H581       20.5644  -11.2068   20.1456 H         1 SUB1        0.033
     28 H582       19.7576  -11.9897   18.7446 H         1 SUB1        0.033
     29 H591       19.7208  -14.1564   19.9166 H         1 SUB1        0.053
     30 H592       20.7133  -13.4194   21.2199 H         1 SUB1        0.053
     31 H601       17.0344  -17.0758   21.4933 H         1 SUB1        0.103
     32 H602       16.6435  -15.4246   20.9038 H         1 SUB1        0.103
     33 C1         18.7400  -14.4090   24.4190 C.3       1 SUB1        0.020
     34 C2         18.9060  -15.7460   25.2000 C.3       1 SUB1       -0.043
     35 C3         19.4890  -15.5290   26.6320 C.3       1 SUB1       -0.052
     36 C4         20.8110  -14.7180   26.5380 C.3       1 SUB1       -0.053
     37 C5         20.5890  -13.3450   25.8180 C.3       1 SUB1       -0.052
     38 C6         20.0880  -13.6120   24.3660 C.3       1 SUB1       -0.043
     39 N7         17.0410  -15.5660   22.9810 N.4       1 SUB1        0.263
     40 C8         18.2480  -14.6920   22.9380 C.3       1 SUB1        0.072
     41 C9         17.8690  -13.4020   22.2810 C.2       1 SUB1        0.230
     42 O0         16.8270  -12.7900   22.6660 O.2       1 SUB1       -0.391
     43 N11        18.6150  -12.9120   21.2930 N.am      1 SUB1       -0.247
     44 C12        18.4550  -11.6940   20.4810 C.3       1 SUB1        0.136
     45 C13        17.0860  -11.8150   19.8150 C.2       1 SUB1        0.204
     46 O14        16.8180  -12.8260   19.1830 O.2       1 SUB1       -0.394
     47 N15        16.1420  -10.7990   19.9520 N.am      1 SUB1       -0.274
     48 C16        14.7890  -11.0010   19.4880 C.3       1 SUB1        0.064
     49 C17        13.8470  -10.9690   20.6190 C.ar      1 SUB1       -0.021
     50 C18        13.2900   -9.7430   21.0060 C.ar      1 SUB1       -0.054
     51 C19        12.3680   -9.6780   22.1010 C.ar      1 SUB1       -0.014
     52 C20        12.0130  -10.8460   22.8000 C.ar      1 SUB1        0.179
     53 C21        12.5810  -12.1100   22.4090 C.ar      1 SUB1       -0.014
     54 C22        13.5050  -12.1640   21.3070 C.ar      1 SUB1       -0.054
     55 C23        11.1080  -10.7790   23.8690 C.cat     1 SUB1        0.312
     56 N24        10.9490   -9.6150   24.5710 N.pl3     1 SUB1       -0.201
     57 N25        10.3630  -11.8800   24.2150 N.pl3     1 SUB1       -0.201
     58 C26        19.7830  -11.9190   19.8420 C.3       1 SUB1        0.008
     59 C27        19.8320  -13.2830   20.5760 C.3       1 SUB1        0.041
     60 C28        16.4900  -16.1470   21.7190 C.3       1 SUB1        0.008
     61 C29        14.9780  -16.4710   21.8140 C.2       1 SUB1        0.073
     62 O30        14.3890  -16.5990   23.0010 O.co2     1 SUB1       -0.562
     63 O31        14.2770  -16.6270   20.7220 O.co2     1 SUB1       -0.562
@<TRIPOS>BOND
     1   33    1 1  
     2   34    2 1  
     3   34    3 1  
     4   35    4 1  
     5   35    5 1  
     6   36    6 1  
     7   36    7 1  
     8   37    8 1  
     9   37    9 1  
    10   38   10 1  
    11   38   11 1  
    12   39   12 1  
    13   39   13 1  
    14   40   14 1  
    15   44   15 1  
    16   47   16 1  
    17   48   17 1  
    18   48   18 1  
    19   50   19 1  
    20   51   20 1  
    21   53   21 1  
    22   54   22 1  
    23   56   23 1  
    24   56   24 1  
    25   57   25 1  
    26   57   26 1  
    27   58   27 1  
    28   58   28 1  
    29   59   29 1  
    30   59   30 1  
    31   60   31 1  
    32   60   32 1  
    33   40   33 1  
    34   33   38 1  
    35   33   34 1  
    36   34   35 1  
    37   35   36 1  
    38   37   36 1  
    39   38   37 1  
    40   39   40 1  
    41   40   41 1  
    42   41   43 am 
    43   41   42 2  
    44   43   59 1  
    45   43   44 1  
    46   44   58 1  
    47   44   45 1  
    48   45   47 am 
    49   45   46 2  
    50   47   48 1  
    51   48   49 1  
    52   49   54 ar 
    53   49   50 ar 
    54   50   51 ar 
    55   51   52 ar 
    56   52   55 1  
    57   53   52 ar 
    58   54   53 ar 
    59   55   57 1  
    60   55   56 1  
    61   59   58 1  
    62   39   60 1  
    63   60   61 1  
    64   61   63 2  
    65   61   62 2  
@<TRIPOS>SUBSTRUCTURE
     1 SUB1        1 GROUP

