### 
### Created by X-TOOL on Tue Oct 25 01:16:11 2005
### 

@<TRIPOS>MOLECULE
1bnt_ligand
   38    40     1     0     0
SMALL
GAST_HUCK


@<TRIPOS>ATOM
      1 H41        -2.1391    2.0372   13.2785 H         1 SUB1        0.212
      2 H51        -3.9817    4.8355   12.1657 H         1 SUB1        0.059
      3 C3         -5.2980    2.0710   15.9760 C.2       1 SUB1        0.159
      4 O5         -2.3840    2.8150   12.7910 O.3       1 SUB1       -0.381
      5 C9         -3.1400    5.0670   12.8350 C.3       1 SUB1        0.086
      6 C10        -2.7570    3.8410   13.6970 C.3       1 SUB1        0.101
      7 C11        -3.0180    7.2900   13.8320 C.ar      1 SUB1        0.055
      8 C12        -2.9630    8.0310   12.6430 C.ar      1 SUB1       -0.053
      9 C13        -2.4250    9.3160   12.6570 C.ar      1 SUB1       -0.048
     10 C14        -1.9250    9.8350   13.8530 C.ar      1 SUB1        0.073
     11 C15        -1.9510    9.0880   15.0400 C.ar      1 SUB1       -0.048
     12 C16        -2.5070    7.8110   15.0280 C.ar      1 SUB1       -0.053
     13 O1A        -5.4860    0.8180   18.2380 O.2       1 SUB1       -0.150
     14 O2A        -7.3100    0.9230   16.8750 O.2       1 SUB1       -0.150
     15 N21        -5.5200   -0.5310   16.2930 N.am      1 SUB1       -0.261
     16 S1         -5.9080    0.7570   16.8950 S.o2      1 SUB1        0.074
     17 C4         -4.1150    2.1470   15.2890 C.2       1 SUB1       -0.042
     18 C5         -3.8850    3.3250   14.6260 C.2       1 SUB1       -0.004
     19 C6         -4.9450    4.1890   14.8420 C.2       1 SUB1        0.164
     20 S2         -6.1910    3.5260   15.8110 S.3       1 SUB1       -0.001
     21 S7         -4.9630    5.7960   14.2370 S.o2      1 SUB1        0.092
     22 O3B        -5.8730    5.8450   13.1410 O.2       1 SUB1       -0.147
     23 O4B        -5.4530    6.6170   15.3010 O.2       1 SUB1       -0.147
     24 N8         -3.5200    6.0470   13.8370 N.am      1 SUB1       -0.178
     25 O6         -1.4580   11.1370   13.8280 O.3       1 SUB1       -0.332
     26 C17        -0.0750   11.2720   13.4630 C.3       1 SUB1        0.056
     27 H52        -2.2841    5.4179   12.2399 H         1 SUB1        0.059
     28 H61        -1.8955    4.1101   14.3258 H         1 SUB1        0.073
     29 H81        -3.3369    7.6065   11.7183 H         1 SUB1        0.046
     30 H91        -2.3949    9.9069   11.7487 H         1 SUB1        0.050
     31 H111       -1.5431    9.4998   15.9560 H         1 SUB1        0.050
     32 H121       -2.5441    7.2238   15.9385 H         1 SUB1        0.046
     33 H151       -5.8074   -1.3957   16.7240 H         1 SUB1        0.163
     34 H171       -3.4023    1.3238   15.2707 H         1 SUB1        0.041
     35 H261        0.2040   12.3360   13.4704 H         1 SUB1        0.057
     36 H262        0.0803   10.8593   12.4552 H         1 SUB1        0.057
     37 H263        0.5497   10.7241   14.1839 H         1 SUB1        0.057
     38 H152       -4.9716   -0.5471   15.4569 H         1 SUB1        0.163
@<TRIPOS>BOND
     1    3   20 1  
     2    3   17 2  
     3    3   16 1  
     4   16   13 2  
     5   16   14 2  
     6   16   15 1  
     7   17   18 1  
     8   18   19 2  
     9   18    6 1  
    10    6    5 1  
    11    6    4 1  
    12    5   24 1  
    13   24    7 1  
    14   24   21 1  
    15   21   23 2  
    16   21   22 2  
    17   21   19 1  
    18   19   20 1  
    19    7   12 ar 
    20    7    8 ar 
    21    8    9 ar 
    22    9   10 ar 
    23   10   25 1  
    24   10   11 ar 
    25   11   12 ar 
    26   25   26 1  
    27    4    1 1  
    28    5    2 1  
    29    5   27 1  
    30    6   28 1  
    31    8   29 1  
    32    9   30 1  
    33   11   31 1  
    34   12   32 1  
    35   15   33 1  
    36   17   34 1  
    37   26   35 1  
    38   26   36 1  
    39   26   37 1  
    40   15   38 1  
@<TRIPOS>SUBSTRUCTURE
     1 SUB1        1 GROUP

