1bnt_ligand
  -I-interpret- 

 38 40  0  0  0  0  0  0  0  0999 V2000
   -2.1391    2.0372   13.2785 H   0  0  0  0  0
   -3.9817    4.8355   12.1657 H   0  0  0  0  0
   -5.2980    2.0710   15.9760 C   0  0  0  0  0
   -2.3840    2.8150   12.7910 O   0  0  0  0  0
   -3.1400    5.0670   12.8350 C   0  0  0  0  0
   -2.7570    3.8410   13.6970 C   0  0  0  0  0
   -3.0180    7.2900   13.8320 C   0  0  0  0  0
   -2.9630    8.0310   12.6430 C   0  0  0  0  0
   -2.4250    9.3160   12.6570 C   0  0  0  0  0
   -1.9250    9.8350   13.8530 C   0  0  0  0  0
   -1.9510    9.0880   15.0400 C   0  0  0  0  0
   -2.5070    7.8110   15.0280 C   0  0  0  0  0
   -5.4860    0.8180   18.2380 O   0  0  0  0  0
   -7.3100    0.9230   16.8750 O   0  0  0  0  0
   -5.5200   -0.5310   16.2930 N   0  0  0  0  0
   -5.9080    0.7570   16.8950 S   0  0  0  0  0
   -4.1150    2.1470   15.2890 C   0  0  0  0  0
   -3.8850    3.3250   14.6260 C   0  0  0  0  0
   -4.9450    4.1890   14.8420 C   0  0  0  0  0
   -6.1910    3.5260   15.8110 S   0  0  0  0  0
   -4.9630    5.7960   14.2370 S   0  0  0  0  0
   -5.8730    5.8450   13.1410 O   0  0  0  0  0
   -5.4530    6.6170   15.3010 O   0  0  0  0  0
   -3.5200    6.0470   13.8370 N   0  0  0  0  0
   -1.4580   11.1370   13.8280 O   0  0  0  0  0
   -0.0750   11.2720   13.4630 C   0  0  0  0  0
   -2.2841    5.4179   12.2399 H   0  0  0  0  0
   -1.8955    4.1101   14.3258 H   0  0  0  0  0
   -3.3369    7.6065   11.7183 H   0  0  0  0  0
   -2.3949    9.9069   11.7487 H   0  0  0  0  0
   -1.5431    9.4998   15.9560 H   0  0  0  0  0
   -2.5441    7.2238   15.9385 H   0  0  0  0  0
   -5.8074   -1.3957   16.7240 H   0  0  0  0  0
   -3.4023    1.3238   15.2707 H   0  0  0  0  0
    0.2040   12.3360   13.4704 H   0  0  0  0  0
    0.0803   10.8593   12.4552 H   0  0  0  0  0
    0.5497   10.7241   14.1839 H   0  0  0  0  0
   -4.9716   -0.5471   15.4569 H   0  0  0  0  0
  3 20  1  0  0  0
  3 17  2  0  0  0
  3 16  1  0  0  0
 16 13  2  0  0  0
 16 14  2  0  0  0
 16 15  1  0  0  0
 17 18  1  0  0  0
 18 19  2  0  0  0
 18  6  1  0  0  0
  6  5  1  0  0  0
  6  4  1  0  0  0
  5 24  1  0  0  0
 24  7  1  0  0  0
 24 21  1  0  0  0
 21 23  2  0  0  0
 21 22  2  0  0  0
 21 19  1  0  0  0
 19 20  1  0  0  0
  7 12  4  0  0  0
  7  8  4  0  0  0
  8  9  4  0  0  0
  9 10  4  0  0  0
 10 25  1  0  0  0
 10 11  4  0  0  0
 11 12  4  0  0  0
 25 26  1  0  0  0
  4  1  1  0  0  0
  5  2  1  0  0  0
  5 27  1  0  0  0
  6 28  1  0  0  0
  8 29  1  0  0  0
  9 30  1  0  0  0
 11 31  1  0  0  0
 12 32  1  0  0  0
 15 33  1  0  0  0
 17 34  1  0  0  0
 26 35  1  0  0  0
 26 36  1  0  0  0
 26 37  1  0  0  0
 15 38  1  0  0  0
M  END
$$$$
