### 
### Created by X-TOOL on Sun Jun  3 11:31:55 2007
### 

@<TRIPOS>MOLECULE
2j79_ligand
   25    25     1     0     0
SMALL
GAST_HUCK


@<TRIPOS>ATOM
      1 C1         -1.0040   10.7130   10.5590 C.2       1 SUB1        0.132
      2 N1         -0.6590   10.3720   11.8000 N.2       1 SUB1       -0.207
      3 C2          0.0820   11.4610    9.7580 C.3       1 SUB1        0.150
      4 N5         -2.3020   10.3820   10.0750 N.pl3     1 SUB1       -0.299
      5 O7         -1.4930    9.5120   12.5330 O.3       1 SUB1       -0.305
      6 O2          0.4940   12.6670   10.3580 O.3       1 SUB1       -0.371
      7 C3         -0.4750   11.8970    8.4000 C.3       1 SUB1        0.123
      8 O3          0.6520   12.1630    7.5930 O.3       1 SUB1       -0.384
      9 C4         -1.4350   10.8530    7.7670 C.3       1 SUB1        0.110
     10 O4         -0.6840    9.6660    7.6480 O.3       1 SUB1       -0.387
     11 C5         -2.6640   10.6690    8.6850 C.3       1 SUB1        0.090
     12 C6         -3.6670    9.5670    8.2980 C.3       1 SUB1        0.069
     13 O6         -3.2150    8.2790    8.6280 O.3       1 SUB1       -0.393
     14 H           0.9126   10.7580    9.6956 H         1 SUB1        0.084
     15 H          -2.9809    9.9442   10.6977 H         1 SUB1        0.181
     16 H          -1.1121    9.3619   13.4013 H         1 SUB1        0.252
     17 H           1.1671   13.0808    9.8127 H         1 SUB1        0.214
     18 H          -1.1019   12.7823    8.5065 H         1 SUB1        0.067
     19 H           1.1756   12.8594    7.9961 H         1 SUB1        0.210
     20 H          -1.8128   11.1602    6.7918 H         1 SUB1        0.065
     21 H           0.0779    9.8257    7.0862 H         1 SUB1        0.210
     22 H          -3.1431   11.6399    8.5583 H         1 SUB1        0.060
     23 H          -3.8047    9.6056    7.2174 H         1 SUB1        0.058
     24 H          -4.5903    9.7478    8.8484 H         1 SUB1        0.058
     25 H          -2.3918    8.1020    8.1668 H         1 SUB1        0.209
@<TRIPOS>BOND
     1    1    2 2  
     2    1    3 1  
     3    1    4 1  
     4    2    5 1  
     5    3    6 1  
     6    3    7 1  
     7    4   11 1  
     8    7    8 1  
     9    7    9 1  
    10    9   10 1  
    11    9   11 1  
    12   11   12 1  
    13   12   13 1  
    14    3   14 1  
    15    4   15 1  
    16    5   16 1  
    17    6   17 1  
    18    7   18 1  
    19    8   19 1  
    20    9   20 1  
    21   10   21 1  
    22   11   22 1  
    23   12   23 1  
    24   12   24 1  
    25   13   25 1  
@<TRIPOS>SUBSTRUCTURE
     1 SUB1        1 GROUP

