### 
### Created by X-TOOL on Tue Oct 25 02:01:05 2005
### 

@<TRIPOS>MOLECULE
1n51_ligand
   67    69     1     0     0
SMALL
GAST_HUCK


@<TRIPOS>ATOM
      1 O1         30.5070   56.4660   44.1810 O.3       1 SUB1       -0.366
      2 C1         29.1140   56.2440   43.9060 C.3       1 SUB1        0.188
      3 CB         26.8820   55.6350   44.9100 C.3       1 SUB1        0.029
      4 CG         25.8750   55.9580   46.0010 C.ar      1 SUB1       -0.037
      5 CD1        25.8720   57.2040   46.6320 C.ar      1 SUB1       -0.060
      6 CD2        24.8820   55.0410   46.3410 C.ar      1 SUB1       -0.060
      7 CE1        24.8920   57.5300   47.5780 C.ar      1 SUB1       -0.069
      8 CE2        23.8970   55.3570   47.2850 C.ar      1 SUB1       -0.069
      9 CZ         23.9040   56.6070   47.9030 C.ar      1 SUB1       -0.069
     10 C          28.5640   57.3960   43.0800 C.2       1 SUB1        0.215
     11 O          28.3830   58.5060   43.5830 O.2       1 SUB1       -0.394
     12 N          28.9930   55.1050   46.1170 N.4       1 SUB1        0.226
     13 CA         28.3200   56.0920   45.2160 C.3       1 SUB1        0.029
     14 N1         28.2930   57.1370   41.7900 N.am      1 SUB1       -0.249
     15 CA1        27.7680   58.1280   40.8520 C.3       1 SUB1        0.134
     16 C2         26.7750   59.1140   41.4470 C.2       1 SUB1        0.207
     17 O2         25.6580   58.7530   41.8120 O.2       1 SUB1       -0.394
     18 CB1        27.1690   57.2630   39.7590 C.3       1 SUB1       -0.010
     19 CG1        28.1680   56.1520   39.6790 C.3       1 SUB1       -0.028
     20 CD         28.3830   55.8130   41.1430 C.3       1 SUB1        0.037
     21 N2         27.1770   60.3900   41.5290 N.am      1 SUB1       -0.250
     22 CA2        26.3950   61.5030   42.0650 C.3       1 SUB1        0.134
     23 C3         24.8920   61.3880   41.8010 C.2       1 SUB1        0.204
     24 O3         24.4480   61.4410   40.6590 O.2       1 SUB1       -0.394
     25 CB2        27.0150   62.7050   41.3670 C.3       1 SUB1       -0.010
     26 CG2        28.4480   62.3320   41.3110 C.3       1 SUB1       -0.028
     27 CD3        28.3780   60.9010   40.8430 C.3       1 SUB1        0.037
     28 N3         24.1190   61.2300   42.8700 N.am      1 SUB1       -0.264
     29 CA3        22.6710   61.1170   42.7670 C.3       1 SUB1        0.128
     30 C4         22.0220   62.4330   43.2010 C.2       1 SUB1        0.199
     31 O4         21.7630   63.3190   42.3760 O.2       1 SUB1       -0.395
     32 CB3        22.1730   59.9770   43.6270 C.3       1 SUB1       -0.024
     33 N4         21.7690   62.5850   44.4940 N.am      1 SUB1       -0.299
     34 H11        30.8458   55.7439   44.6970 H         1 SUB1        0.214
     35 H21        29.0048   55.3091   43.3368 H         1 SUB1        0.090
     36 H31        26.9028   54.5450   44.7635 H         1 SUB1        0.048
     37 H32        26.5648   56.1323   43.9815 H         1 SUB1        0.048
     38 H51        26.6392   57.9292   46.3860 H         1 SUB1        0.056
     39 H61        24.8719   54.0664   45.8666 H         1 SUB1        0.056
     40 H71        24.9037   58.5023   48.0571 H         1 SUB1        0.060
     41 H81        23.1310   54.6317   47.5347 H         1 SUB1        0.060
     42 H91        23.1431   56.8579   48.6331 H         1 SUB1        0.056
     43 H121       29.9316   55.4201   46.3061 H         1 SUB1        0.200
     44 H122       28.4890   55.0344   46.9870 H         1 SUB1        0.200
     45 H123       29.0337   54.2029   45.6692 H         1 SUB1        0.200
     46 H131       28.2892   57.0614   45.7349 H         1 SUB1        0.093
     47 H151       28.5996   58.7103   40.4287 H         1 SUB1        0.080
     48 H181       26.1775   56.8787   40.0405 H         1 SUB1        0.031
     49 H182       27.1047   57.8015   38.8020 H         1 SUB1        0.031
     50 H191       27.7669   55.2849   39.1338 H         1 SUB1        0.029
     51 H192       29.1080   56.4849   39.2147 H         1 SUB1        0.029
     52 H201       29.3721   55.3560   41.2940 H         1 SUB1        0.052
     53 H202       27.5968   55.1331   41.5031 H         1 SUB1        0.052
     54 H221       26.5502   61.5889   43.1506 H         1 SUB1        0.080
     55 H251       26.6087   62.8379   40.3535 H         1 SUB1        0.031
     56 H252       26.8766   63.6271   41.9505 H         1 SUB1        0.031
     57 H261       29.0008   62.9514   40.5895 H         1 SUB1        0.029
     58 H262       28.9230   62.3955   42.3011 H         1 SUB1        0.029
     59 H271       29.2801   60.3508   41.1488 H         1 SUB1        0.052
     60 H272       28.2651   60.8580   39.7497 H         1 SUB1        0.052
     61 H281       24.5450   61.1873   43.7737 H         1 SUB1        0.188
     62 H291       22.3959   60.9024   41.7238 H         1 SUB1        0.080
     63 H321       21.0790   59.9099   43.5343 H         1 SUB1        0.028
     64 H322       22.6197   59.0300   43.2900 H         1 SUB1        0.028
     65 H323       22.4326   60.1604   44.6800 H         1 SUB1        0.028
     66 H331       21.3455   63.4283   44.8249 H         1 SUB1        0.182
     67 H332       22.0017   61.8563   45.1381 H         1 SUB1        0.182
@<TRIPOS>BOND
     1    2    1 1  
     2    2   10 1  
     3   13    2 1  
     4    3    4 1  
     5   13    3 1  
     6    4    5 ar 
     7    4    6 ar 
     8    5    7 ar 
     9    6    8 ar 
    10    7    9 ar 
    11    8    9 ar 
    12   10   11 2  
    13   10   14 am 
    14   14   15 1  
    15   14   20 1  
    16   15   16 1  
    17   15   18 1  
    18   16   17 2  
    19   16   21 am 
    20   18   19 1  
    21   19   20 1  
    22   21   22 1  
    23   21   27 1  
    24   22   23 1  
    25   22   25 1  
    26   23   24 2  
    27   23   28 am 
    28   25   26 1  
    29   26   27 1  
    30   28   29 1  
    31   29   30 1  
    32   29   32 1  
    33   30   31 2  
    34   30   33 am 
    35   13   12 1  
    36    1   34 1  
    37    2   35 1  
    38    3   36 1  
    39    3   37 1  
    40    5   38 1  
    41    6   39 1  
    42    7   40 1  
    43    8   41 1  
    44    9   42 1  
    45   12   43 1  
    46   12   44 1  
    47   12   45 1  
    48   13   46 1  
    49   15   47 1  
    50   18   48 1  
    51   18   49 1  
    52   19   50 1  
    53   19   51 1  
    54   20   52 1  
    55   20   53 1  
    56   22   54 1  
    57   25   55 1  
    58   25   56 1  
    59   26   57 1  
    60   26   58 1  
    61   27   59 1  
    62   27   60 1  
    63   28   61 1  
    64   29   62 1  
    65   32   63 1  
    66   32   64 1  
    67   32   65 1  
    68   33   66 1  
    69   33   67 1  
@<TRIPOS>SUBSTRUCTURE
     1 SUB1        1 GROUP

