1n51_ligand
  -I-interpret- 

 67 69  0  0  0  0  0  0  0  0999 V2000
   30.5070   56.4660   44.1810 O   0  0  0  0  0
   29.1140   56.2440   43.9060 C   0  0  0  0  0
   26.8820   55.6350   44.9100 C   0  0  0  0  0
   25.8750   55.9580   46.0010 C   0  0  0  0  0
   25.8720   57.2040   46.6320 C   0  0  0  0  0
   24.8820   55.0410   46.3410 C   0  0  0  0  0
   24.8920   57.5300   47.5780 C   0  0  0  0  0
   23.8970   55.3570   47.2850 C   0  0  0  0  0
   23.9040   56.6070   47.9030 C   0  0  0  0  0
   28.5640   57.3960   43.0800 C   0  0  0  0  0
   28.3830   58.5060   43.5830 O   0  0  0  0  0
   28.9930   55.1050   46.1170 N   0  3  0  0  0
   28.3200   56.0920   45.2160 C   0  0  0  0  0
   28.2930   57.1370   41.7900 N   0  0  0  0  0
   27.7680   58.1280   40.8520 C   0  0  0  0  0
   26.7750   59.1140   41.4470 C   0  0  0  0  0
   25.6580   58.7530   41.8120 O   0  0  0  0  0
   27.1690   57.2630   39.7590 C   0  0  0  0  0
   28.1680   56.1520   39.6790 C   0  0  0  0  0
   28.3830   55.8130   41.1430 C   0  0  0  0  0
   27.1770   60.3900   41.5290 N   0  0  0  0  0
   26.3950   61.5030   42.0650 C   0  0  0  0  0
   24.8920   61.3880   41.8010 C   0  0  0  0  0
   24.4480   61.4410   40.6590 O   0  0  0  0  0
   27.0150   62.7050   41.3670 C   0  0  0  0  0
   28.4480   62.3320   41.3110 C   0  0  0  0  0
   28.3780   60.9010   40.8430 C   0  0  0  0  0
   24.1190   61.2300   42.8700 N   0  0  0  0  0
   22.6710   61.1170   42.7670 C   0  0  0  0  0
   22.0220   62.4330   43.2010 C   0  0  0  0  0
   21.7630   63.3190   42.3760 O   0  0  0  0  0
   22.1730   59.9770   43.6270 C   0  0  0  0  0
   21.7690   62.5850   44.4940 N   0  0  0  0  0
   30.8458   55.7439   44.6970 H   0  0  0  0  0
   29.0048   55.3091   43.3368 H   0  0  0  0  0
   26.9028   54.5450   44.7635 H   0  0  0  0  0
   26.5648   56.1323   43.9815 H   0  0  0  0  0
   26.6392   57.9292   46.3860 H   0  0  0  0  0
   24.8719   54.0664   45.8666 H   0  0  0  0  0
   24.9037   58.5023   48.0571 H   0  0  0  0  0
   23.1310   54.6317   47.5347 H   0  0  0  0  0
   23.1431   56.8579   48.6331 H   0  0  0  0  0
   29.9316   55.4201   46.3061 H   0  0  0  0  0
   28.4890   55.0344   46.9870 H   0  0  0  0  0
   29.0337   54.2029   45.6692 H   0  0  0  0  0
   28.2892   57.0614   45.7349 H   0  0  0  0  0
   28.5996   58.7103   40.4287 H   0  0  0  0  0
   26.1775   56.8787   40.0405 H   0  0  0  0  0
   27.1047   57.8015   38.8020 H   0  0  0  0  0
   27.7669   55.2849   39.1338 H   0  0  0  0  0
   29.1080   56.4849   39.2147 H   0  0  0  0  0
   29.3721   55.3560   41.2940 H   0  0  0  0  0
   27.5968   55.1331   41.5031 H   0  0  0  0  0
   26.5502   61.5889   43.1506 H   0  0  0  0  0
   26.6087   62.8379   40.3535 H   0  0  0  0  0
   26.8766   63.6271   41.9505 H   0  0  0  0  0
   29.0008   62.9514   40.5895 H   0  0  0  0  0
   28.9230   62.3955   42.3011 H   0  0  0  0  0
   29.2801   60.3508   41.1488 H   0  0  0  0  0
   28.2651   60.8580   39.7497 H   0  0  0  0  0
   24.5450   61.1873   43.7737 H   0  0  0  0  0
   22.3959   60.9024   41.7238 H   0  0  0  0  0
   21.0790   59.9099   43.5343 H   0  0  0  0  0
   22.6197   59.0300   43.2900 H   0  0  0  0  0
   22.4326   60.1604   44.6800 H   0  0  0  0  0
   21.3455   63.4283   44.8249 H   0  0  0  0  0
   22.0017   61.8563   45.1381 H   0  0  0  0  0
  2  1  1  0  0  0
  2 10  1  0  0  0
 13  2  1  0  0  0
  3  4  1  0  0  0
 13  3  1  0  0  0
  4  5  4  0  0  0
  4  6  4  0  0  0
  5  7  4  0  0  0
  6  8  4  0  0  0
  7  9  4  0  0  0
  8  9  4  0  0  0
 10 11  2  0  0  0
 10 14  1  0  0  0
 14 15  1  0  0  0
 14 20  1  0  0  0
 15 16  1  0  0  0
 15 18  1  0  0  0
 16 17  2  0  0  0
 16 21  1  0  0  0
 18 19  1  0  0  0
 19 20  1  0  0  0
 21 22  1  0  0  0
 21 27  1  0  0  0
 22 23  1  0  0  0
 22 25  1  0  0  0
 23 24  2  0  0  0
 23 28  1  0  0  0
 25 26  1  0  0  0
 26 27  1  0  0  0
 28 29  1  0  0  0
 29 30  1  0  0  0
 29 32  1  0  0  0
 30 31  2  0  0  0
 30 33  1  0  0  0
 13 12  1  0  0  0
  1 34  1  0  0  0
  2 35  1  0  0  0
  3 36  1  0  0  0
  3 37  1  0  0  0
  5 38  1  0  0  0
  6 39  1  0  0  0
  7 40  1  0  0  0
  8 41  1  0  0  0
  9 42  1  0  0  0
 12 43  1  0  0  0
 12 44  1  0  0  0
 12 45  1  0  0  0
 13 46  1  0  0  0
 15 47  1  0  0  0
 18 48  1  0  0  0
 18 49  1  0  0  0
 19 50  1  0  0  0
 19 51  1  0  0  0
 20 52  1  0  0  0
 20 53  1  0  0  0
 22 54  1  0  0  0
 25 55  1  0  0  0
 25 56  1  0  0  0
 26 57  1  0  0  0
 26 58  1  0  0  0
 27 59  1  0  0  0
 27 60  1  0  0  0
 28 61  1  0  0  0
 29 62  1  0  0  0
 32 63  1  0  0  0
 32 64  1  0  0  0
 32 65  1  0  0  0
 33 66  1  0  0  0
 33 67  1  0  0  0
M  END
$$$$
