### 
### Created by X-TOOL on Mon Oct 24 22:40:37 2005
### 

@<TRIPOS>MOLECULE
1b58_ligand
   68    68     1     0     0
SMALL
GAST_HUCK


@<TRIPOS>ATOM
      1 N           6.9150   17.0380   15.3930 N.4       1 SUB1        0.238
      2 CA          6.4760   18.3740   14.8690 C.3       1 SUB1        0.065
      3 C           5.2090   18.8230   15.5770 C.2       1 SUB1        0.227
      4 O           4.3540   17.9690   15.9280 O.2       1 SUB1       -0.391
      5 CB          6.2380   18.3740   13.3360 C.3       1 SUB1        0.008
      6 CG          5.3130   17.2940   12.8190 C.3       1 SUB1       -0.041
      7 CD          5.2260   17.1990   11.3010 C.3       1 SUB1       -0.012
      8 CE          6.4950   16.6350   10.6400 C.3       1 SUB1       -0.035
      9 NZ          6.6610   15.2160   11.0780 N.4       1 SUB1        0.219
     10 N           5.0340   20.1190   15.7240 N.am      1 SUB1       -0.259
     11 CA          3.8450   20.7030   16.3620 C.3       1 SUB1        0.139
     12 C           2.5900   20.6220   15.5040 C.2       1 SUB1        0.207
     13 O           2.5840   20.9110   14.2970 O.2       1 SUB1       -0.394
     14 CB          4.0340   22.2090   16.7220 C.3       1 SUB1        0.016
     15 CG          5.1690   22.3880   17.7110 C.ar      1 SUB1       -0.049
     16 CD1         5.0000   22.2060   19.0650 C.ar      1 SUB1       -0.068
     17 CD2         6.4310   22.7480   17.2570 C.ar      1 SUB1       -0.068
     18 CE1         6.0240   22.3470   19.9870 C.ar      1 SUB1       -0.040
     19 CE2         7.4550   22.9090   18.1560 C.ar      1 SUB1       -0.040
     20 CZ          7.2430   22.7030   19.5100 C.ar      1 SUB1        0.080
     21 OH          8.3200   22.8540   20.3430 O.3       1 SUB1       -0.338
     22 N           1.4820   20.2830   16.1640 N.am      1 SUB1       -0.268
     23 CA          0.2100   20.1790   15.4820 C.3       1 SUB1        0.081
     24 C          -0.8450   21.0560   16.1900 C.2       1 SUB1        0.053
     25 O          -1.8140   21.4040   15.5080 O.co2     1 SUB1       -0.564
     26 CB         -0.3390   18.7550   15.3730 C.3       1 SUB1       -0.018
     27 CG         -1.3620   18.7940   14.1820 C.3       1 SUB1       -0.043
     28 CD         -2.1300   17.5010   14.0680 C.3       1 SUB1       -0.012
     29 CE         -3.3530   17.6770   13.1380 C.3       1 SUB1       -0.035
     30 NZ         -2.8580   17.3570   11.7770 N.4       1 SUB1        0.219
     31 OXT        -0.6940   21.4150   17.3600 O.co2     1 SUB1       -0.564
     32 H11         6.3011   16.7517   16.1395 H         1 SUB1        0.201
     33 H21         7.2735   19.0993   15.0878 H         1 SUB1        0.110
     34 H51         7.2129   18.2498   12.8419 H         1 SUB1        0.035
     35 H52         5.8086   19.3484   13.0600 H         1 SUB1        0.035
     36 H61         4.3034   17.4934   13.2076 H         1 SUB1        0.027
     37 H62         5.6689   16.3264   13.2024 H         1 SUB1        0.027
     38 H71         5.0453   18.2073   10.9003 H         1 SUB1        0.032
     39 H72         4.3804   16.5448   11.0424 H         1 SUB1        0.032
     40 H81         7.3699   17.2249   10.9507 H         1 SUB1        0.081
     41 H82         6.3944   16.6771    9.5454 H         1 SUB1        0.081
     42 H91         6.7594   15.1832   12.0806 H         1 SUB1        0.199
     43 H92         7.4840   14.8253   10.6467 H         1 SUB1        0.199
     44 H93         5.8516   14.6823   10.8021 H         1 SUB1        0.199
     45 H101        5.7440   20.7365   15.3854 H         1 SUB1        0.189
     46 H111        3.6666   20.1409   17.2906 H         1 SUB1        0.082
     47 H141        3.1041   22.5928   17.1670 H         1 SUB1        0.045
     48 H142        4.2619   22.7730   15.8055 H         1 SUB1        0.045
     49 H161        4.0144   21.9385   19.4285 H         1 SUB1        0.053
     50 H171        6.6062   22.9010   16.1982 H         1 SUB1        0.053
     51 H181        5.8583   22.1799   21.0452 H         1 SUB1        0.052
     52 H191        8.4382   23.1998   17.8042 H         1 SUB1        0.052
     53 H211        8.0516   22.6882   21.2390 H         1 SUB1        0.246
     54 H221        1.5309   20.0978   17.1455 H         1 SUB1        0.190
     55 H231        0.3537   20.5604   14.4603 H         1 SUB1        0.078
     56 H261       -0.8448   18.4648   16.3057 H         1 SUB1        0.032
     57 H262        0.4732   18.0444   15.1600 H         1 SUB1        0.032
     58 H271       -0.8126   18.9667   13.2448 H         1 SUB1        0.027
     59 H272       -2.0720   19.6176   14.3479 H         1 SUB1        0.027
     60 H281       -2.4758   17.1962   15.0667 H         1 SUB1        0.032
     61 H282       -1.4704   16.7235   13.6553 H         1 SUB1        0.032
     62 H291       -3.7234   18.7119   13.1799 H         1 SUB1        0.081
     63 H292       -4.1595   16.9870   13.4270 H         1 SUB1        0.081
     64 H301       -2.1197   17.9969   11.5289 H         1 SUB1        0.199
     65 H302       -3.6138   17.4433   11.1156 H         1 SUB1        0.199
     66 H303       -2.5041   16.4133   11.7614 H         1 SUB1        0.199
     67 H12         7.8583   17.1072   15.7416 H         1 SUB1        0.201
     68 H13         6.8804   16.3577   14.6500 H         1 SUB1        0.201
@<TRIPOS>BOND
     1    2    1 1  
     2    2    5 1  
     3    3    2 1  
     4    3    4 2  
     5    5    6 1  
     6    6    7 1  
     7    7    8 1  
     8    8    9 1  
     9   11   10 1  
    10   11   14 1  
    11   12   11 1  
    12   12   13 2  
    13   14   15 1  
    14   15   16 ar 
    15   15   17 ar 
    16   17   19 ar 
    17   19   20 ar 
    18   20   21 1  
    19   18   20 ar 
    20   16   18 ar 
    21   10    3 am 
    22   22   23 1  
    23   23   26 1  
    24   23   24 1  
    25   24   25 2  
    26   24   31 2  
    27   26   27 1  
    28   27   28 1  
    29   28   29 1  
    30   29   30 1  
    31   12   22 am 
    32    1   32 1  
    33    2   33 1  
    34    5   34 1  
    35    5   35 1  
    36    6   36 1  
    37    6   37 1  
    38    7   38 1  
    39    7   39 1  
    40    8   40 1  
    41    8   41 1  
    42    9   42 1  
    43    9   43 1  
    44    9   44 1  
    45   10   45 1  
    46   11   46 1  
    47   14   47 1  
    48   14   48 1  
    49   16   49 1  
    50   17   50 1  
    51   18   51 1  
    52   19   52 1  
    53   21   53 1  
    54   22   54 1  
    55   23   55 1  
    56   26   56 1  
    57   26   57 1  
    58   27   58 1  
    59   27   59 1  
    60   28   60 1  
    61   28   61 1  
    62   29   62 1  
    63   29   63 1  
    64   30   64 1  
    65   30   65 1  
    66   30   66 1  
    67    1   67 1  
    68    1   68 1  
@<TRIPOS>SUBSTRUCTURE
     1 SUB1        1 GROUP

