1ce5_ligand
  -I-interpret- 

 18 18  0  0  0  0  0  0  0  0999 V2000
   10.9977   26.9561   27.1894 H   0  0  0  0  0
   10.7899   28.0577   29.4744 H   0  0  0  0  0
   11.6226   30.4461   29.8138 H   0  0  0  0  0
   12.7014   31.7162   27.8945 H   0  0  0  0  0
   13.1612   30.5352   25.6941 H   0  0  0  0  0
   12.1120   28.6310   26.2150 C   0  0  0  0  0
   11.4070   27.9480   27.3430 C   0  0  0  0  0
   11.2570   28.5920   28.6550 C   0  0  0  0  0
   11.7440   29.9650   28.8500 C   0  0  0  0  0
   12.3900   30.6870   27.7570 C   0  0  0  0  0
   12.6160   30.0160   26.4740 C   0  0  0  0  0
   12.3530   27.9680   24.9490 C   0  3  0  0  0
   12.7630   28.6000   23.8250 N   0  0  0  0  0
   12.1920   26.6400   24.7490 N   0  0  0  0  0
   12.9146   28.0637   22.9588 H   0  0  0  0  0
   12.9235   29.6174   23.8356 H   0  0  0  0  0
   11.8821   26.0363   25.5239 H   0  0  0  0  0
   12.3793   26.2324   23.8218 H   0  0  0  0  0
  7  1  1  0  0  0
  8  2  1  0  0  0
  9  3  1  0  0  0
 10  4  1  0  0  0
  6 12  1  0  0  0
  6 11  4  0  0  0
  7  6  4  0  0  0
  8  7  4  0  0  0
  9  8  4  0  0  0
  9 10  4  0  0  0
 10 11  4  0  0  0
 12 14  1  0  0  0
 12 13  1  0  0  0
 11  5  1  0  0  0
 13 15  1  0  0  0
 13 16  1  0  0  0
 14 17  1  0  0  0
 14 18  1  0  0  0
M  END
$$$$
