### 
### Created by X-TOOL on Mon Oct 24 23:06:47 2005
### 

@<TRIPOS>MOLECULE
1ce5_ligand
   18    18     1     0     0
SMALL
GAST_HUCK


@<TRIPOS>ATOM
      1 H71        10.9977   26.9561   27.1894 H         1 SUB1        0.066
      2 H81        10.7899   28.0577   29.4744 H         1 SUB1        0.062
      3 H91        11.6226   30.4461   29.8138 H         1 SUB1        0.062
      4 H101       12.7014   31.7162   27.8945 H         1 SUB1        0.062
      5 H111       13.1612   30.5352   25.6941 H         1 SUB1        0.066
      6 C1         12.1120   28.6310   26.2150 C.ar      1 SUB1        0.186
      7 C2         11.4070   27.9480   27.3430 C.ar      1 SUB1       -0.007
      8 C3         11.2570   28.5920   28.6550 C.ar      1 SUB1       -0.057
      9 C4         11.7440   29.9650   28.8500 C.ar      1 SUB1       -0.062
     10 C5         12.3900   30.6870   27.7570 C.ar      1 SUB1       -0.057
     11 C6         12.6160   30.0160   26.4740 C.ar      1 SUB1       -0.007
     12 C          12.3530   27.9680   24.9490 C.cat     1 SUB1        0.316
     13 N1         12.7630   28.6000   23.8250 N.pl3     1 SUB1       -0.200
     14 N2         12.1920   26.6400   24.7490 N.pl3     1 SUB1       -0.200
     15 H131       12.9146   28.0637   22.9588 H         1 SUB1        0.192
     16 H132       12.9235   29.6174   23.8356 H         1 SUB1        0.192
     17 H141       11.8821   26.0363   25.5239 H         1 SUB1        0.192
     18 H142       12.3793   26.2324   23.8218 H         1 SUB1        0.192
@<TRIPOS>BOND
     1    7    1 1  
     2    8    2 1  
     3    9    3 1  
     4   10    4 1  
     5    6   12 1  
     6    6   11 ar 
     7    7    6 ar 
     8    8    7 ar 
     9    9    8 ar 
    10    9   10 ar 
    11   10   11 ar 
    12   12   14 1  
    13   12   13 1  
    14   11    5 1  
    15   13   15 1  
    16   13   16 1  
    17   14   17 1  
    18   14   18 1  
@<TRIPOS>SUBSTRUCTURE
     1 SUB1        1 GROUP

