1z3t_ligand
  -I-interpret- 

 45 46  0  0  0  0  0  0  0  0999 V2000
    3.0130   10.7670   23.6450 C   0  0  0  0  0
    4.2470    9.8970   23.2410 C   0  0  0  0  0
    4.2060    8.6560   24.1070 C   0  0  0  0  0
    4.0640    9.0070   25.5540 C   0  0  0  0  0
    2.8220    9.8650   25.7890 C   0  0  0  0  0
    2.6210   10.2410   27.2480 C   0  0  0  0  0
    4.3390    9.5460   21.8170 O   0  0  0  0  0
    5.3420    7.7740   23.9190 O   0  0  0  0  0
    3.9450    7.7710   26.2830 O   0  0  0  0  0
    3.0240   11.0590   25.0590 O   0  0  0  0  0
    3.7610   10.8780   27.7330 O   0  0  0  0  0
    0.7070   15.1070   21.7890 C   0  0  0  0  0
    0.9420   15.0460   23.2800 C   0  0  0  0  0
    2.0910   14.1440   23.5860 C   0  0  0  0  0
    1.8880   12.7720   22.8890 C   0  0  0  0  0
    1.6550   12.9800   21.4230 C   0  0  0  0  0
    1.3560   11.6520   20.7220 C   0  0  0  0  0
   -0.4770   15.8680   21.6060 O   0  0  0  0  0
    1.3540   16.3480   23.6860 O   0  0  0  0  0
    2.1700   13.9510   24.9750 O   0  0  0  0  0
    3.0560   11.9980   23.0030 O   0  0  0  0  0
    0.5240   13.8130   21.2330 O   0  0  0  0  0
    0.4290   10.8570   21.4560 O   0  0  0  0  0
    2.1260   10.1973   23.3680 H   0  0  0  0  0
    5.1439   10.4941   23.4057 H   0  0  0  0  0
    3.3240    8.1057   23.7793 H   0  0  0  0  0
    4.9290    9.5811   25.8860 H   0  0  0  0  0
    1.9431    9.2992   25.4798 H   0  0  0  0  0
    2.4374    9.3383   27.8306 H   0  0  0  0  0
    1.7685   10.9149   27.3321 H   0  0  0  0  0
    5.1394    9.0383   21.6648 H   0  0  0  0  0
    5.2096    6.9707   24.4277 H   0  0  0  0  0
    4.7273    7.2354   26.1324 H   0  0  0  0  0
    3.9251   11.6726   27.2197 H   0  0  0  0  0
    1.5691   15.5504   21.2908 H   0  0  0  0  0
    0.0376   14.6958   23.7775 H   0  0  0  0  0
    3.0119   14.5987   23.2208 H   0  0  0  0  0
    1.0399   12.2753   23.3602 H   0  0  0  0  0
    2.5565   13.4303   21.0074 H   0  0  0  0  0
    2.2889   11.0949   20.6357 H   0  0  0  0  0
    0.9194   11.8719   19.7478 H   0  0  0  0  0
   -0.3548   16.7431   21.9814 H   0  0  0  0  0
    0.6482   16.9748   23.5113 H   0  0  0  0  0
    2.9115   13.3751   25.1753 H   0  0  0  0  0
    0.2692   10.0363   20.9843 H   0  0  0  0  0
  1  2  1  0  0  0
  1 10  1  0  0  0
 21  1  1  0  0  0
  2  3  1  0  0  0
  2  7  1  0  0  0
  3  4  1  0  0  0
  3  8  1  0  0  0
  5  4  1  0  0  0
  4  9  1  0  0  0
  5  6  1  0  0  0
 10  5  1  0  0  0
  6 11  1  0  0  0
 13 12  1  0  0  0
 12 18  1  0  0  0
 12 22  1  0  0  0
 14 13  1  0  0  0
 13 19  1  0  0  0
 15 14  1  0  0  0
 14 20  1  0  0  0
 15 16  1  0  0  0
 15 21  1  0  0  0
 16 17  1  0  0  0
 16 22  1  0  0  0
 17 23  1  0  0  0
  1 24  1  0  0  0
  2 25  1  0  0  0
  3 26  1  0  0  0
  4 27  1  0  0  0
  5 28  1  0  0  0
  6 29  1  0  0  0
  6 30  1  0  0  0
  7 31  1  0  0  0
  8 32  1  0  0  0
  9 33  1  0  0  0
 11 34  1  0  0  0
 12 35  1  0  0  0
 13 36  1  0  0  0
 14 37  1  0  0  0
 15 38  1  0  0  0
 16 39  1  0  0  0
 17 40  1  0  0  0
 17 41  1  0  0  0
 18 42  1  0  0  0
 19 43  1  0  0  0
 20 44  1  0  0  0
 23 45  1  0  0  0
M  END
$$$$
