### 
### Created by X-TOOL on Sun Jun  3 11:48:39 2007
### 

@<TRIPOS>MOLECULE
1z3t_ligand
   45    46     1     0     0
SMALL
GAST_HUCK


@<TRIPOS>ATOM
      1 C1          3.0130   10.7670   23.6450 C.3       1 SUB1        0.188
      2 C2          4.2470    9.8970   23.2410 C.3       1 SUB1        0.134
      3 C3          4.2060    8.6560   24.1070 C.3       1 SUB1        0.114
      4 C4          4.0640    9.0070   25.5540 C.3       1 SUB1        0.112
      5 C5          2.8220    9.8650   25.7890 C.3       1 SUB1        0.113
      6 C6          2.6210   10.2410   27.2480 C.3       1 SUB1        0.073
      7 O2          4.3390    9.5460   21.8170 O.3       1 SUB1       -0.384
      8 O3          5.3420    7.7740   23.9190 O.3       1 SUB1       -0.386
      9 O4          3.9450    7.7710   26.2830 O.3       1 SUB1       -0.387
     10 O5          3.0240   11.0590   25.0590 O.3       1 SUB1       -0.340
     11 O6          3.7610   10.8780   27.7330 O.3       1 SUB1       -0.392
     12 C1'         0.7070   15.1070   21.7890 C.3       1 SUB1        0.185
     13 C2'         0.9420   15.0460   23.2800 C.3       1 SUB1        0.134
     14 C3'         2.0910   14.1440   23.5860 C.3       1 SUB1        0.114
     15 C4'         1.8880   12.7720   22.8890 C.3       1 SUB1        0.118
     16 C5'         1.6550   12.9800   21.4230 C.3       1 SUB1        0.113
     17 C6'         1.3560   11.6520   20.7220 C.3       1 SUB1        0.073
     18 O1'        -0.4770   15.8680   21.6060 O.3       1 SUB1       -0.365
     19 O2'         1.3540   16.3480   23.6860 O.3       1 SUB1       -0.384
     20 O3'         2.1700   13.9510   24.9750 O.3       1 SUB1       -0.386
     21 O4'         3.0560   11.9980   23.0030 O.3       1 SUB1       -0.340
     22 O5'         0.5240   13.8130   21.2330 O.3       1 SUB1       -0.341
     23 O6'         0.4290   10.8570   21.4560 O.3       1 SUB1       -0.392
     24 H           2.1260   10.1973   23.3680 H         1 SUB1        0.094
     25 H           5.1439   10.4941   23.4057 H         1 SUB1        0.067
     26 H           3.3240    8.1057   23.7793 H         1 SUB1        0.065
     27 H           4.9290    9.5811   25.8860 H         1 SUB1        0.065
     28 H           1.9431    9.2992   25.4798 H         1 SUB1        0.065
     29 H           2.4374    9.3383   27.8306 H         1 SUB1        0.058
     30 H           1.7685   10.9149   27.3321 H         1 SUB1        0.058
     31 H           5.1394    9.0383   21.6648 H         1 SUB1        0.210
     32 H           5.2096    6.9707   24.4277 H         1 SUB1        0.210
     33 H           4.7273    7.2354   26.1324 H         1 SUB1        0.210
     34 H           3.9251   11.6726   27.2197 H         1 SUB1        0.209
     35 H           1.5691   15.5504   21.2908 H         1 SUB1        0.094
     36 H           0.0376   14.6958   23.7775 H         1 SUB1        0.067
     37 H           3.0119   14.5987   23.2208 H         1 SUB1        0.065
     38 H           1.0399   12.2753   23.3602 H         1 SUB1        0.065
     39 H           2.5565   13.4303   21.0074 H         1 SUB1        0.065
     40 H           2.2889   11.0949   20.6357 H         1 SUB1        0.058
     41 H           0.9194   11.8719   19.7478 H         1 SUB1        0.058
     42 H          -0.3548   16.7431   21.9814 H         1 SUB1        0.213
     43 H           0.6482   16.9748   23.5113 H         1 SUB1        0.210
     44 H           2.9115   13.3751   25.1753 H         1 SUB1        0.210
     45 H           0.2692   10.0363   20.9843 H         1 SUB1        0.209
@<TRIPOS>BOND
     1    1    2 1  
     2    1   10 1  
     3   21    1 1  
     4    2    3 1  
     5    2    7 1  
     6    3    4 1  
     7    3    8 1  
     8    5    4 1  
     9    4    9 1  
    10    5    6 1  
    11   10    5 1  
    12    6   11 1  
    13   13   12 1  
    14   12   18 1  
    15   12   22 1  
    16   14   13 1  
    17   13   19 1  
    18   15   14 1  
    19   14   20 1  
    20   15   16 1  
    21   15   21 1  
    22   16   17 1  
    23   16   22 1  
    24   17   23 1  
    25    1   24 1  
    26    2   25 1  
    27    3   26 1  
    28    4   27 1  
    29    5   28 1  
    30    6   29 1  
    31    6   30 1  
    32    7   31 1  
    33    8   32 1  
    34    9   33 1  
    35   11   34 1  
    36   12   35 1  
    37   13   36 1  
    38   14   37 1  
    39   15   38 1  
    40   16   39 1  
    41   17   40 1  
    42   17   41 1  
    43   18   42 1  
    44   19   43 1  
    45   20   44 1  
    46   23   45 1  
@<TRIPOS>SUBSTRUCTURE
     1 SUB1        1 GROUP

