1tok_ligand
  -I-interpret- 

 10  9  0  0  0  0  0  0  0  0999 V2000
   36.8250   19.4470   -3.8260 C   0  0  0  0  0
   36.7530   20.5780   -3.2830 O   0  0  0  0  0
   36.9220   18.4380   -3.0830 O   0  5  0  0  0
   36.7050   19.3960   -5.3140 C   0  0  0  0  0
   36.4720   18.3330   -6.0920 C   0  0  0  0  0
   36.4700   16.9220   -5.6560 C   0  0  0  0  0
   35.5520   16.3540   -4.9950 O   0  5  0  0  0
   37.4690   16.2720   -6.0060 O   0  0  0  0  0
   36.8223   20.3466   -5.8322 H   0  0  0  0  0
   36.2647   18.5258   -7.1436 H   0  0  0  0  0
  1  2  2  0  0  0
  1  3  1  0  0  0
  1  4  1  0  0  0
  4  5  2  0  0  0
  5  6  1  0  0  0
  6  7  1  0  0  0
  6  8  2  0  0  0
  4  9  1  0  0  0
  5 10  1  0  0  0
M  END
$$$$
