1jeu_ligand
  -I-interpret- 

 62 61  0  0  0  0  0  0  0  0999 V2000
    6.9710   16.6310   15.1610 N   0  3  0  0  0
    6.4570   17.9140   14.5770 C   0  0  0  0  0
    5.2300   18.4070   15.3260 C   0  0  0  0  0
    4.4710   17.5920   15.8650 O   0  0  0  0  0
    6.2050   17.7380   13.0900 C   0  0  0  0  0
    5.3260   16.5730   12.6920 C   0  0  0  0  0
    5.1880   16.4730   11.1790 C   0  0  0  0  0
    6.4370   15.9090   10.5280 C   0  0  0  0  0
    6.6940   14.5080   10.9900 N   0  3  0  0  0
    5.0250   19.7160   15.4110 N   0  0  0  0  0
    3.9020   20.3030   16.1320 C   0  0  0  0  0
    2.5820   20.1570   15.3830 C   0  0  0  0  0
    2.5260   20.3750   14.1830 O   0  0  0  0  0
    4.1800   21.7860   16.4140 C   0  0  0  0  0
    5.4870   22.0530   17.1320 C   0  0  0  0  0
    5.5070   21.7130   18.5990 C   0  0  0  0  0
    4.4800   21.2770   19.1650 O   0  0  0  0  0
    6.5720   21.8810   19.2410 O   0  5  0  0  0
    1.5160   19.7930   16.1120 N   0  0  0  0  0
    0.1920   19.6270   15.5440 C   0  0  0  0  0
   -0.8350   20.5300   16.2310 C   0  0  0  0  0
   -1.8260   20.8750   15.5450 O   0  5  0  0  0
   -0.3440   18.1940   15.4970 C   0  0  0  0  0
   -1.1830   18.0360   14.2050 C   0  0  0  0  0
   -2.1660   16.9100   14.2770 C   0  0  0  0  0
   -3.3420   17.1560   13.3350 C   0  0  0  0  0
   -2.9680   16.9360   11.9100 N   0  3  0  0  0
   -0.6330   20.8920   17.4010 O   0  0  0  0  0
    6.3930   16.3619   15.9417 H   0  0  0  0  0
    7.2408   18.6769   14.6938 H   0  0  0  0  0
    7.1800   17.6053   12.5983 H   0  0  0  0  0
    5.7298   18.6582   12.7195 H   0  0  0  0  0
    4.3281   16.7101   13.1341 H   0  0  0  0  0
    5.7711   15.6421   13.0732 H   0  0  0  0  0
    4.9992   17.4777   10.7729 H   0  0  0  0  0
    4.3376   15.8164   10.9430 H   0  0  0  0  0
    7.2981   16.5396   10.7942 H   0  0  0  0  0
    6.3057   15.9098    9.4359 H   0  0  0  0  0
    6.8283   14.5030   11.9890 H   0  0  0  0  0
    7.5215   14.1516   10.5380 H   0  0  0  0  0
    5.9053   13.9263   10.7540 H   0  0  0  0  0
    5.6724   20.3292   14.9584 H   0  0  0  0  0
    3.8054   19.7775   17.0935 H   0  0  0  0  0
    3.3605   22.1776   17.0346 H   0  0  0  0  0
    4.2000   22.3209   15.4531 H   0  0  0  0  0
    5.7160   23.1240   17.0301 H   0  0  0  0  0
    6.2715   21.4616   16.6372 H   0  0  0  0  0
    1.6400   19.6289   17.0906 H   0  0  0  0  0
    0.2699   19.9613   14.4989 H   0  0  0  0  0
   -0.9755   18.0031   16.3772 H   0  0  0  0  0
    0.4947   17.4824   15.4862 H   0  0  0  0  0
   -0.4989   17.8501   13.3639 H   0  0  0  0  0
   -1.7345   18.9714   14.0292 H   0  0  0  0  0
   -2.5412   16.8241   15.3074 H   0  0  0  0  0
   -1.6640   15.9741   13.9905 H   0  0  0  0  0
   -3.6838   18.1944   13.4566 H   0  0  0  0  0
   -4.1587   16.4679   13.5986 H   0  0  0  0  0
   -2.2302   17.5733   11.6541 H   0  0  0  0  0
   -3.7710   17.0986   11.3229 H   0  0  0  0  0
   -2.6497   15.9873   11.7887 H   0  0  0  0  0
    7.9201   16.7610   15.4747 H   0  0  0  0  0
    6.9452   15.9081   14.4590 H   0  0  0  0  0
  2  1  1  0  0  0
  2  5  1  0  0  0
  3  2  1  0  0  0
  3  4  2  0  0  0
  5  6  1  0  0  0
  6  7  1  0  0  0
  7  8  1  0  0  0
  8  9  1  0  0  0
 11 10  1  0  0  0
 11 14  1  0  0  0
 12 11  1  0  0  0
 12 13  2  0  0  0
 14 15  1  0  0  0
 15 16  1  0  0  0
 16 18  1  0  0  0
 16 17  2  0  0  0
 10  3  1  0  0  0
 19 20  1  0  0  0
 20 23  1  0  0  0
 20 21  1  0  0  0
 21 22  1  0  0  0
 21 28  2  0  0  0
 23 24  1  0  0  0
 24 25  1  0  0  0
 25 26  1  0  0  0
 26 27  1  0  0  0
 12 19  1  0  0  0
  1 29  1  0  0  0
  2 30  1  0  0  0
  5 31  1  0  0  0
  5 32  1  0  0  0
  6 33  1  0  0  0
  6 34  1  0  0  0
  7 35  1  0  0  0
  7 36  1  0  0  0
  8 37  1  0  0  0
  8 38  1  0  0  0
  9 39  1  0  0  0
  9 40  1  0  0  0
  9 41  1  0  0  0
 10 42  1  0  0  0
 11 43  1  0  0  0
 14 44  1  0  0  0
 14 45  1  0  0  0
 15 46  1  0  0  0
 15 47  1  0  0  0
 19 48  1  0  0  0
 20 49  1  0  0  0
 23 50  1  0  0  0
 23 51  1  0  0  0
 24 52  1  0  0  0
 24 53  1  0  0  0
 25 54  1  0  0  0
 25 55  1  0  0  0
 26 56  1  0  0  0
 26 57  1  0  0  0
 27 58  1  0  0  0
 27 59  1  0  0  0
 27 60  1  0  0  0
  1 61  1  0  0  0
  1 62  1  0  0  0
M  END
$$$$
