### 
### Created by X-TOOL on Mon Oct 24 21:53:09 2005
### 

@<TRIPOS>MOLECULE
1jeu_ligand
   62    61     1     0     0
SMALL
GAST_HUCK


@<TRIPOS>ATOM
      1 N           6.9710   16.6310   15.1610 N.4       1 SUB1        0.238
      2 CA          6.4570   17.9140   14.5770 C.3       1 SUB1        0.065
      3 C           5.2300   18.4070   15.3260 C.2       1 SUB1        0.227
      4 O           4.4710   17.5920   15.8650 O.2       1 SUB1       -0.391
      5 CB          6.2050   17.7380   13.0900 C.3       1 SUB1        0.008
      6 CG          5.3260   16.5730   12.6920 C.3       1 SUB1       -0.041
      7 CD          5.1880   16.4730   11.1790 C.3       1 SUB1       -0.012
      8 CE          6.4370   15.9090   10.5280 C.3       1 SUB1       -0.035
      9 NZ          6.6940   14.5080   10.9900 N.4       1 SUB1        0.219
     10 N           5.0250   19.7160   15.4110 N.am      1 SUB1       -0.261
     11 CA          3.9020   20.3030   16.1320 C.3       1 SUB1        0.134
     12 C           2.5820   20.1570   15.3830 C.2       1 SUB1        0.205
     13 O           2.5260   20.3750   14.1830 O.2       1 SUB1       -0.394
     14 CB          4.1800   21.7860   16.4140 C.3       1 SUB1       -0.001
     15 CG          5.4870   22.0530   17.1320 C.3       1 SUB1       -0.010
     16 CD          5.5070   21.7130   18.5990 C.2       1 SUB1        0.028
     17 OE1         4.4800   21.2770   19.1650 O.co2     1 SUB1       -0.567
     18 OE2         6.5720   21.8810   19.2410 O.co2     1 SUB1       -0.567
     19 N           1.5160   19.7930   16.1120 N.am      1 SUB1       -0.268
     20 CA          0.1920   19.6270   15.5440 C.3       1 SUB1        0.081
     21 C          -0.8350   20.5300   16.2310 C.2       1 SUB1        0.053
     22 O          -1.8260   20.8750   15.5450 O.co2     1 SUB1       -0.564
     23 CB         -0.3440   18.1940   15.4970 C.3       1 SUB1       -0.018
     24 CG         -1.1830   18.0360   14.2050 C.3       1 SUB1       -0.043
     25 CD         -2.1660   16.9100   14.2770 C.3       1 SUB1       -0.012
     26 CE         -3.3420   17.1560   13.3350 C.3       1 SUB1       -0.035
     27 NZ         -2.9680   16.9360   11.9100 N.4       1 SUB1        0.219
     28 OXT        -0.6330   20.8920   17.4010 O.co2     1 SUB1       -0.564
     29 H11         6.3930   16.3619   15.9417 H         1 SUB1        0.201
     30 H21         7.2408   18.6769   14.6938 H         1 SUB1        0.110
     31 H51         7.1800   17.6053   12.5983 H         1 SUB1        0.035
     32 H52         5.7298   18.6582   12.7195 H         1 SUB1        0.035
     33 H61         4.3281   16.7101   13.1341 H         1 SUB1        0.027
     34 H62         5.7711   15.6421   13.0732 H         1 SUB1        0.027
     35 H71         4.9992   17.4777   10.7729 H         1 SUB1        0.032
     36 H72         4.3376   15.8164   10.9430 H         1 SUB1        0.032
     37 H81         7.2981   16.5396   10.7942 H         1 SUB1        0.081
     38 H82         6.3057   15.9098    9.4359 H         1 SUB1        0.081
     39 H91         6.8283   14.5030   11.9890 H         1 SUB1        0.199
     40 H92         7.5215   14.1516   10.5380 H         1 SUB1        0.199
     41 H93         5.9053   13.9263   10.7540 H         1 SUB1        0.199
     42 H101        5.6724   20.3292   14.9584 H         1 SUB1        0.189
     43 H111        3.8054   19.7775   17.0935 H         1 SUB1        0.080
     44 H141        3.3605   22.1776   17.0346 H         1 SUB1        0.035
     45 H142        4.2000   22.3209   15.4531 H         1 SUB1        0.035
     46 H151        5.7160   23.1240   17.0301 H         1 SUB1        0.049
     47 H152        6.2715   21.4616   16.6372 H         1 SUB1        0.049
     48 H191        1.6400   19.6289   17.0906 H         1 SUB1        0.190
     49 H201        0.2699   19.9613   14.4989 H         1 SUB1        0.078
     50 H231       -0.9755   18.0031   16.3772 H         1 SUB1        0.032
     51 H232        0.4947   17.4824   15.4862 H         1 SUB1        0.032
     52 H241       -0.4989   17.8501   13.3639 H         1 SUB1        0.027
     53 H242       -1.7345   18.9714   14.0292 H         1 SUB1        0.027
     54 H251       -2.5412   16.8241   15.3074 H         1 SUB1        0.032
     55 H252       -1.6640   15.9741   13.9905 H         1 SUB1        0.032
     56 H261       -3.6838   18.1944   13.4566 H         1 SUB1        0.081
     57 H262       -4.1587   16.4679   13.5986 H         1 SUB1        0.081
     58 H271       -2.2302   17.5733   11.6541 H         1 SUB1        0.199
     59 H272       -3.7710   17.0986   11.3229 H         1 SUB1        0.199
     60 H273       -2.6497   15.9873   11.7887 H         1 SUB1        0.199
     61 H12         7.9201   16.7610   15.4747 H         1 SUB1        0.201
     62 H13         6.9452   15.9081   14.4590 H         1 SUB1        0.201
@<TRIPOS>BOND
     1    2    1 1  
     2    2    5 1  
     3    3    2 1  
     4    3    4 2  
     5    5    6 1  
     6    6    7 1  
     7    7    8 1  
     8    8    9 1  
     9   11   10 1  
    10   11   14 1  
    11   12   11 1  
    12   12   13 2  
    13   14   15 1  
    14   15   16 1  
    15   16   18 2  
    16   16   17 2  
    17   10    3 am 
    18   19   20 1  
    19   20   23 1  
    20   20   21 1  
    21   21   22 2  
    22   21   28 2  
    23   23   24 1  
    24   24   25 1  
    25   25   26 1  
    26   26   27 1  
    27   12   19 am 
    28    1   29 1  
    29    2   30 1  
    30    5   31 1  
    31    5   32 1  
    32    6   33 1  
    33    6   34 1  
    34    7   35 1  
    35    7   36 1  
    36    8   37 1  
    37    8   38 1  
    38    9   39 1  
    39    9   40 1  
    40    9   41 1  
    41   10   42 1  
    42   11   43 1  
    43   14   44 1  
    44   14   45 1  
    45   15   46 1  
    46   15   47 1  
    47   19   48 1  
    48   20   49 1  
    49   23   50 1  
    50   23   51 1  
    51   24   52 1  
    52   24   53 1  
    53   25   54 1  
    54   25   55 1  
    55   26   56 1  
    56   26   57 1  
    57   27   58 1  
    58   27   59 1  
    59   27   60 1  
    60    1   61 1  
    61    1   62 1  
@<TRIPOS>SUBSTRUCTURE
     1 SUB1        1 GROUP

