2f8i_ligand
  -I-interpret- 

 26 28  0  0  0  0  0  0  0  0999 V2000
   22.0900    0.3930    4.5450 C   0  0  0  0  0
   21.6120    0.0640    5.8110 C   0  0  0  0  0
   21.3660   -0.0380    3.4060 C   0  0  0  0  0
   20.2060   -0.7660    3.5620 C   0  0  0  0  0
   19.7250   -1.1040    4.8320 C   0  0  0  0  0
   20.4370   -0.6710    5.9510 C   0  0  0  0  0
   21.2480    1.0140   10.1030 C   0  0  0  0  0
   21.3030   -0.1830    9.4180 C   0  0  0  0  0
   21.1760   -0.2480    7.9570 C   0  0  0  0  0
   21.3540    1.0660   11.4820 C   0  0  0  0  0
   21.5800   -1.3180   11.5120 C   0  0  0  0  0
   21.5220   -0.1130   12.2040 C   0  0  0  0  0
   21.4670   -1.3450   10.1370 C   0  0  0  0  0
   19.4870   -1.1920    2.3170 C   0  0  0  0  0
   19.6810   -0.5170    1.2750 O   0  5  0  0  0
   18.7390   -2.1840    2.3280 O   0  0  0  0  0
   20.1510   -0.8840    7.3110 O   0  0  0  0  0
   22.0440    0.3190    7.0640 N   0  0  0  0  0
   21.5430   -2.9260    9.3490 Cl  0  0  0  0  0
   21.0070    2.5360    9.2150 Cl  0  0  0  0  0
   23.0012    0.9695    4.4329 H   0  0  0  0  0
   21.7242    0.2047    2.4121 H   0  0  0  0  0
   18.8194   -1.6892    4.9438 H   0  0  0  0  0
   21.3065    2.0187   11.9970 H   0  0  0  0  0
   21.7152   -2.2447   12.0579 H   0  0  0  0  0
   21.6059   -0.0919   13.2845 H   0  0  0  0  0
  2  1  4  0  0  0
  1  3  4  0  0  0
  6  2  4  0  0  0
  2 18  1  0  0  0
  4  3  4  0  0  0
  5  4  4  0  0  0
  4 14  1  0  0  0
  6  5  4  0  0  0
 17  6  1  0  0  0
  8  7  4  0  0  0
  7 10  4  0  0  0
  7 20  1  0  0  0
  9  8  1  0  0  0
  8 13  4  0  0  0
  9 17  1  0  0  0
  9 18  2  0  0  0
 10 12  4  0  0  0
 12 11  4  0  0  0
 11 13  4  0  0  0
 13 19  1  0  0  0
 14 15  1  0  0  0
 14 16  2  0  0  0
  1 21  1  0  0  0
  3 22  1  0  0  0
  5 23  1  0  0  0
 10 24  1  0  0  0
 11 25  1  0  0  0
 12 26  1  0  0  0
M  END
$$$$
