1tuf_ligand
  -I-interpret- 

 27 26  0  0  0  0  0  0  0  0999 V2000
   55.8270   12.0530   20.1930 C   0  0  0  0  0
   57.2020   12.3620   20.7970 C   0  0  0  0  0
   58.1500   13.3320   21.5110 C   0  0  0  0  0
   59.6030   13.1790   21.9690 C   0  0  0  0  0
   60.4950   11.9840   21.6530 C   0  0  0  0  0
   61.9830   12.2750   21.4350 C   0  0  0  0  0
   62.7800   12.4650   20.1360 C   0  0  0  0  0
   64.1710   13.0970   20.0820 C   0  0  0  0  0
   65.2970   12.2710   20.6740 C   0  0  0  0  0
   55.5610   10.8470   19.6280 O   0  5  0  0  0
   54.9470   12.9130   20.2240 O   0  0  0  0  0
   65.6090   11.0730   20.0780 O   0  5  0  0  0
   65.8720   12.7200   21.6800 O   0  0  0  0  0
   57.8219   12.1459   19.9144 H   0  0  0  0  0
   57.2642   11.5212   21.5035 H   0  0  0  0  0
   57.6114   13.5905   22.4346 H   0  0  0  0  0
   58.1773   14.2073   20.8453 H   0  0  0  0  0
   59.5733   13.2414   23.0668 H   0  0  0  0  0
   60.1320   14.0553   21.5661 H   0  0  0  0  0
   60.1096   11.5135   20.7364 H   0  0  0  0  0
   60.4131   11.2761   22.4909 H   0  0  0  0  0
   62.4942   11.4434   21.9420 H   0  0  0  0  0
   62.1568   13.2070   21.9929 H   0  0  0  0  0
   62.1452   13.0803   19.4816 H   0  0  0  0  0
   62.8897   11.4605   19.7014 H   0  0  0  0  0
   64.1294   14.0508   20.6284 H   0  0  0  0  0
   64.4131   13.2894   19.0264 H   0  0  0  0  0
  1  2  1  0  0  0
  1 10  1  0  0  0
  1 11  2  0  0  0
  2  3  1  0  0  0
  3  4  1  0  0  0
  4  5  1  0  0  0
  5  6  1  0  0  0
  6  7  1  0  0  0
  7  8  1  0  0  0
  8  9  1  0  0  0
  9 12  1  0  0  0
  9 13  2  0  0  0
  2 14  1  0  0  0
  2 15  1  0  0  0
  3 16  1  0  0  0
  3 17  1  0  0  0
  4 18  1  0  0  0
  4 19  1  0  0  0
  5 20  1  0  0  0
  5 21  1  0  0  0
  6 22  1  0  0  0
  6 23  1  0  0  0
  7 24  1  0  0  0
  7 25  1  0  0  0
  8 26  1  0  0  0
  8 27  1  0  0  0
M  END
$$$$
