### 
### Created by X-TOOL on Tue Oct 25 02:22:32 2005
### 

@<TRIPOS>MOLECULE
1tuf_ligand
   27    26     1     0     0
SMALL
GAST_HUCK


@<TRIPOS>ATOM
      1 C1         55.8270   12.0530   20.1930 C.2       1 SUB1        0.028
      2 C2         57.2020   12.3620   20.7970 C.3       1 SUB1       -0.014
      3 C3         58.1500   13.3320   21.5110 C.3       1 SUB1       -0.041
      4 C4         59.6030   13.1790   21.9690 C.3       1 SUB1       -0.050
      5 C5         60.4950   11.9840   21.6530 C.3       1 SUB1       -0.052
      6 C6         61.9830   12.2750   21.4350 C.3       1 SUB1       -0.050
      7 C7         62.7800   12.4650   20.1360 C.3       1 SUB1       -0.041
      8 C8         64.1710   13.0970   20.0820 C.3       1 SUB1       -0.014
      9 C9         65.2970   12.2710   20.6740 C.2       1 SUB1        0.028
     10 O1         55.5610   10.8470   19.6280 O.co2     1 SUB1       -0.567
     11 O2         54.9470   12.9130   20.2240 O.co2     1 SUB1       -0.567
     12 O3         65.6090   11.0730   20.0780 O.co2     1 SUB1       -0.567
     13 O4         65.8720   12.7200   21.6800 O.co2     1 SUB1       -0.567
     14 H21        57.8219   12.1459   19.9144 H         1 SUB1        0.048
     15 H22        57.2642   11.5212   21.5035 H         1 SUB1        0.048
     16 H31        57.6114   13.5905   22.4346 H         1 SUB1        0.030
     17 H32        58.1773   14.2073   20.8453 H         1 SUB1        0.030
     18 H41        59.5733   13.2414   23.0668 H         1 SUB1        0.027
     19 H42        60.1320   14.0553   21.5661 H         1 SUB1        0.027
     20 H51        60.1096   11.5135   20.7364 H         1 SUB1        0.026
     21 H52        60.4131   11.2761   22.4909 H         1 SUB1        0.026
     22 H61        62.4942   11.4434   21.9420 H         1 SUB1        0.027
     23 H62        62.1568   13.2070   21.9929 H         1 SUB1        0.027
     24 H71        62.1452   13.0803   19.4816 H         1 SUB1        0.030
     25 H72        62.8897   11.4605   19.7014 H         1 SUB1        0.030
     26 H81        64.1294   14.0508   20.6284 H         1 SUB1        0.048
     27 H82        64.4131   13.2894   19.0264 H         1 SUB1        0.048
@<TRIPOS>BOND
     1    1    2 1  
     2    1   10 2  
     3    1   11 2  
     4    2    3 1  
     5    3    4 1  
     6    4    5 1  
     7    5    6 1  
     8    6    7 1  
     9    7    8 1  
    10    8    9 1  
    11    9   12 2  
    12    9   13 2  
    13    2   14 1  
    14    2   15 1  
    15    3   16 1  
    16    3   17 1  
    17    4   18 1  
    18    4   19 1  
    19    5   20 1  
    20    5   21 1  
    21    6   22 1  
    22    6   23 1  
    23    7   24 1  
    24    7   25 1  
    25    8   26 1  
    26    8   27 1  
@<TRIPOS>SUBSTRUCTURE
     1 SUB1        1 GROUP

