1mfi_ligand
  -I-interpret- 

 19 19  0  0  0  0  0  0  0  0999 V2000
   -7.3042   11.9779   -4.7474 H   0  0  0  0  0
   -4.0977   11.7307   -2.6740 H   0  0  0  0  0
   -3.3319   13.6097   -1.1965 H   0  0  0  0  0
   -3.8577   15.7185   -0.4341 H   0  0  0  0  0
   -6.5896   16.0631   -2.6189 H   0  0  0  0  0
   -7.3256   14.2031   -4.0584 H   0  0  0  0  0
   -5.7790   12.8310   -3.4600 C   0  0  0  0  0
   -6.3270   11.7680   -4.3150 C   0  0  0  0  0
   -5.8020   10.5790   -4.6410 C   0  0  0  0  0
   -4.4330   10.1460   -4.3210 C   0  0  0  0  0
   -4.3300    8.8990   -4.0560 O   0  5  0  0  0
   -3.4890   10.9710   -4.4260 O   0  0  0  0  0
   -4.6470   12.6650   -2.6530 C   0  0  0  0  0
   -4.2200   13.7210   -1.8080 C   0  0  0  0  0
   -4.9750   14.9330   -1.7730 C   0  0  0  0  0
   -4.6130   15.9730   -0.9510 O   0  0  0  0  0
   -6.0590   15.1180   -2.6040 C   0  0  0  0  0
   -6.4580   14.0670   -3.4230 C   0  0  0  0  0
   -6.5830    9.7240   -5.4240 F   0  0  0  0  0
  9 19  1  0  0  0
  8  1  1  0  0  0
 13  2  1  0  0  0
 14  3  1  0  0  0
 16  4  1  0  0  0
 17  5  1  0  0  0
 18  6  1  0  0  0
  7 18  4  0  0  0
 13  7  4  0  0  0
  7  8  1  0  0  0
  8  9  2  0  0  0
  9 10  1  0  0  0
 10 12  2  0  0  0
 10 11  1  0  0  0
 14 13  4  0  0  0
 15 14  4  0  0  0
 15 17  4  0  0  0
 15 16  1  0  0  0
 17 18  4  0  0  0
M  END
$$$$
