### 
### Created by X-TOOL on Mon Oct 24 22:41:20 2005
### 

@<TRIPOS>MOLECULE
1mfi_ligand
   19    19     1     0     0
SMALL
GAST_HUCK


@<TRIPOS>ATOM
      1 H81        -7.3042   11.9779   -4.7474 H         1 SUB1        0.057
      2 H131       -4.0977   11.7307   -2.6740 H         1 SUB1        0.060
      3 H141       -3.3319   13.6097   -1.1965 H         1 SUB1        0.056
      4 H161       -3.8577   15.7185   -0.4341 H         1 SUB1        0.252
      5 H171       -6.5896   16.0631   -2.6189 H         1 SUB1        0.056
      6 H181       -7.3256   14.2031   -4.0584 H         1 SUB1        0.060
      7 C1         -5.7790   12.8310   -3.4600 C.ar      1 SUB1       -0.034
      8 C7         -6.3270   11.7680   -4.3150 C.2       1 SUB1       -0.028
      9 C8         -5.8020   10.5790   -4.6410 C.2       1 SUB1        0.144
     10 C9         -4.4330   10.1460   -4.3210 C.2       1 SUB1        0.085
     11 O3         -4.3300    8.8990   -4.0560 O.co2     1 SUB1       -0.555
     12 O2         -3.4890   10.9710   -4.4260 O.co2     1 SUB1       -0.555
     13 C6         -4.6470   12.6650   -2.6530 C.ar      1 SUB1       -0.060
     14 C5         -4.2200   13.7210   -1.8080 C.ar      1 SUB1       -0.029
     15 C4         -4.9750   14.9330   -1.7730 C.ar      1 SUB1        0.094
     16 O1         -4.6130   15.9730   -0.9510 O.3       1 SUB1       -0.329
     17 C3         -6.0590   15.1180   -2.6040 C.ar      1 SUB1       -0.029
     18 C2         -6.4580   14.0670   -3.4230 C.ar      1 SUB1       -0.060
     19 F1         -6.5830    9.7240   -5.4240 F         1 SUB1       -0.186
@<TRIPOS>BOND
     1    9   19 1  
     2    8    1 1  
     3   13    2 1  
     4   14    3 1  
     5   16    4 1  
     6   17    5 1  
     7   18    6 1  
     8    7   18 ar 
     9   13    7 ar 
    10    7    8 1  
    11    8    9 2  
    12    9   10 1  
    13   10   12 2  
    14   10   11 2  
    15   14   13 ar 
    16   15   14 ar 
    17   15   17 ar 
    18   15   16 1  
    19   17   18 ar 
@<TRIPOS>SUBSTRUCTURE
     1 SUB1        1 GROUP

