### 
### Created by X-TOOL on Mon Oct 24 22:40:42 2005
### 

@<TRIPOS>MOLECULE
1b5j_ligand
   64    63     1     0     0
SMALL
GAST_HUCK


@<TRIPOS>ATOM
      1 N           6.9140   16.4940   15.1200 N.4       1 SUB1        0.238
      2 CA          6.4250   17.7690   14.5330 C.3       1 SUB1        0.065
      3 C           5.1810   18.2630   15.2420 C.2       1 SUB1        0.227
      4 O           4.4250   17.4650   15.8020 O.2       1 SUB1       -0.391
      5 CB          6.2210   17.6860   13.0080 C.3       1 SUB1        0.008
      6 CG          5.2760   16.5630   12.5730 C.3       1 SUB1       -0.041
      7 CD          5.1850   16.4610   11.0510 C.3       1 SUB1       -0.012
      8 CE          6.4310   15.8590   10.4010 C.3       1 SUB1       -0.035
      9 NZ          6.6880   14.4600   10.8540 N.4       1 SUB1        0.219
     10 N           5.0240   19.5860   15.2760 N.am      1 SUB1       -0.261
     11 CA          3.8710   20.2000   15.9420 C.3       1 SUB1        0.133
     12 C           2.5810   20.0540   15.1670 C.2       1 SUB1        0.205
     13 O           2.4670   20.2870   13.9640 O.2       1 SUB1       -0.394
     14 CB          4.1160   21.7310   16.0430 C.3       1 SUB1        0.004
     15 CG          5.3340   22.0100   16.9260 C.3       1 SUB1        0.041
     16 CD          5.3010   21.7160   18.3800 C.2       1 SUB1        0.174
     17 OE1         4.3940   21.1620   18.9820 O.2       1 SUB1       -0.397
     18 NE2         6.3900   22.0720   19.0740 N.am      1 SUB1       -0.301
     19 N           1.5280   19.6590   15.9010 N.am      1 SUB1       -0.268
     20 CA          0.2110   19.4900   15.3510 C.3       1 SUB1        0.081
     21 C          -0.8060   20.3950   16.0690 C.2       1 SUB1        0.053
     22 O          -1.8000   20.6880   15.3750 O.co2     1 SUB1       -0.564
     23 CB         -0.1970   18.0150   15.5780 C.3       1 SUB1       -0.018
     24 CG         -1.6010   17.7200   15.1130 C.3       1 SUB1       -0.043
     25 CD         -1.6070   17.3160   13.6490 C.3       1 SUB1       -0.012
     26 CE         -3.0610   16.9250   13.2890 C.3       1 SUB1       -0.035
     27 NZ         -3.1060   16.9290   11.7960 N.4       1 SUB1        0.219
     28 OXT        -0.6160   20.7860   17.2430 O.co2     1 SUB1       -0.564
     29 H11         6.2999   16.2110   15.8675 H         1 SUB1        0.201
     30 H21         7.2110   18.5190   14.7054 H         1 SUB1        0.110
     31 H51         7.2000   17.5183   12.5354 H         1 SUB1        0.035
     32 H52         5.8054   18.6434   12.6607 H         1 SUB1        0.035
     33 H61         4.2731   16.7638   12.9777 H         1 SUB1        0.027
     34 H62         5.6483   15.6083   12.9730 H         1 SUB1        0.027
     35 H71         5.0342   17.4715   10.6434 H         1 SUB1        0.032
     36 H72         4.3207   15.8301   10.7960 H         1 SUB1        0.032
     37 H81         7.3007   16.4802   10.6613 H         1 SUB1        0.081
     38 H82         6.2948   15.8578    9.3095 H         1 SUB1        0.081
     39 H91         6.8311   14.4509   11.8517 H         1 SUB1        0.199
     40 H92         7.5106   14.1034   10.3933 H         1 SUB1        0.199
     41 H93         5.8959   13.8811   10.6228 H         1 SUB1        0.199
     42 H101        5.7063   20.1717   14.8385 H         1 SUB1        0.189
     43 H111        3.7554   19.7572   16.9423 H         1 SUB1        0.080
     44 H141        3.2301   22.2133   16.4818 H         1 SUB1        0.034
     45 H142        4.2947   22.1383   15.0369 H         1 SUB1        0.034
     46 H151        5.5535   23.0834   16.8278 H         1 SUB1        0.050
     47 H152        6.1662   21.4257   16.5065 H         1 SUB1        0.050
     48 H181        7.1599   22.5075   18.6075 H         1 SUB1        0.181
     49 H182        6.4331   21.9023   20.0586 H         1 SUB1        0.181
     50 H191        1.6665   19.4742   16.8740 H         1 SUB1        0.190
     51 H201        0.2209   19.7242   14.2763 H         1 SUB1        0.078
     52 H231       -0.1287   17.7927   16.6531 H         1 SUB1        0.032
     53 H232        0.4999   17.3682   15.0248 H         1 SUB1        0.032
     54 H241       -2.2208   18.6196   15.2420 H         1 SUB1        0.027
     55 H242       -2.0163   16.8991   15.7160 H         1 SUB1        0.027
     56 H251       -0.9361   16.4586   13.4917 H         1 SUB1        0.032
     57 H252       -1.2774   18.1589   13.0239 H         1 SUB1        0.032
     58 H261       -3.7710   17.6584   13.6988 H         1 SUB1        0.081
     59 H262       -3.3003   15.9251   13.6800 H         1 SUB1        0.081
     60 H271       -2.8828   17.8512   11.4556 H         1 SUB1        0.199
     61 H272       -4.0302   16.6714   11.4870 H         1 SUB1        0.199
     62 H273       -2.4354   16.2672   11.4378 H         1 SUB1        0.199
     63 H12         7.8453   16.6262   15.4822 H         1 SUB1        0.201
     64 H13         6.9283   15.7802   14.4085 H         1 SUB1        0.201
@<TRIPOS>BOND
     1    2    1 1  
     2    2    5 1  
     3    3    2 1  
     4    3    4 2  
     5    5    6 1  
     6    6    7 1  
     7    7    8 1  
     8    8    9 1  
     9   11   10 1  
    10   11   14 1  
    11   12   11 1  
    12   12   13 2  
    13   14   15 1  
    14   15   16 1  
    15   16   18 am 
    16   16   17 2  
    17   10    3 am 
    18   19   20 1  
    19   20   23 1  
    20   20   21 1  
    21   21   22 2  
    22   21   28 2  
    23   23   24 1  
    24   24   25 1  
    25   25   26 1  
    26   26   27 1  
    27   12   19 am 
    28    1   29 1  
    29    2   30 1  
    30    5   31 1  
    31    5   32 1  
    32    6   33 1  
    33    6   34 1  
    34    7   35 1  
    35    7   36 1  
    36    8   37 1  
    37    8   38 1  
    38    9   39 1  
    39    9   40 1  
    40    9   41 1  
    41   10   42 1  
    42   11   43 1  
    43   14   44 1  
    44   14   45 1  
    45   15   46 1  
    46   15   47 1  
    47   18   48 1  
    48   18   49 1  
    49   19   50 1  
    50   20   51 1  
    51   23   52 1  
    52   23   53 1  
    53   24   54 1  
    54   24   55 1  
    55   25   56 1  
    56   25   57 1  
    57   26   58 1  
    58   26   59 1  
    59   27   60 1  
    60   27   61 1  
    61   27   62 1  
    62    1   63 1  
    63    1   64 1  
@<TRIPOS>SUBSTRUCTURE
     1 SUB1        1 GROUP

