1b5j_ligand
  -I-interpret- 

 64 63  0  0  0  0  0  0  0  0999 V2000
    6.9140   16.4940   15.1200 N   0  3  0  0  0
    6.4250   17.7690   14.5330 C   0  0  0  0  0
    5.1810   18.2630   15.2420 C   0  0  0  0  0
    4.4250   17.4650   15.8020 O   0  0  0  0  0
    6.2210   17.6860   13.0080 C   0  0  0  0  0
    5.2760   16.5630   12.5730 C   0  0  0  0  0
    5.1850   16.4610   11.0510 C   0  0  0  0  0
    6.4310   15.8590   10.4010 C   0  0  0  0  0
    6.6880   14.4600   10.8540 N   0  3  0  0  0
    5.0240   19.5860   15.2760 N   0  0  0  0  0
    3.8710   20.2000   15.9420 C   0  0  0  0  0
    2.5810   20.0540   15.1670 C   0  0  0  0  0
    2.4670   20.2870   13.9640 O   0  0  0  0  0
    4.1160   21.7310   16.0430 C   0  0  0  0  0
    5.3340   22.0100   16.9260 C   0  0  0  0  0
    5.3010   21.7160   18.3800 C   0  0  0  0  0
    4.3940   21.1620   18.9820 O   0  0  0  0  0
    6.3900   22.0720   19.0740 N   0  0  0  0  0
    1.5280   19.6590   15.9010 N   0  0  0  0  0
    0.2110   19.4900   15.3510 C   0  0  0  0  0
   -0.8060   20.3950   16.0690 C   0  0  0  0  0
   -1.8000   20.6880   15.3750 O   0  0  0  0  0
   -0.1970   18.0150   15.5780 C   0  0  0  0  0
   -1.6010   17.7200   15.1130 C   0  0  0  0  0
   -1.6070   17.3160   13.6490 C   0  0  0  0  0
   -3.0610   16.9250   13.2890 C   0  0  0  0  0
   -3.1060   16.9290   11.7960 N   0  3  0  0  0
   -0.6160   20.7860   17.2430 O   0  5  0  0  0
    6.2999   16.2110   15.8675 H   0  0  0  0  0
    7.2110   18.5190   14.7054 H   0  0  0  0  0
    7.2000   17.5183   12.5354 H   0  0  0  0  0
    5.8054   18.6434   12.6607 H   0  0  0  0  0
    4.2731   16.7638   12.9777 H   0  0  0  0  0
    5.6483   15.6083   12.9730 H   0  0  0  0  0
    5.0342   17.4715   10.6434 H   0  0  0  0  0
    4.3207   15.8301   10.7960 H   0  0  0  0  0
    7.3007   16.4802   10.6613 H   0  0  0  0  0
    6.2948   15.8578    9.3095 H   0  0  0  0  0
    6.8311   14.4509   11.8517 H   0  0  0  0  0
    7.5106   14.1034   10.3933 H   0  0  0  0  0
    5.8959   13.8811   10.6228 H   0  0  0  0  0
    5.7063   20.1717   14.8385 H   0  0  0  0  0
    3.7554   19.7572   16.9423 H   0  0  0  0  0
    3.2301   22.2133   16.4818 H   0  0  0  0  0
    4.2947   22.1383   15.0369 H   0  0  0  0  0
    5.5535   23.0834   16.8278 H   0  0  0  0  0
    6.1662   21.4257   16.5065 H   0  0  0  0  0
    7.1599   22.5075   18.6075 H   0  0  0  0  0
    6.4331   21.9023   20.0586 H   0  0  0  0  0
    1.6665   19.4742   16.8740 H   0  0  0  0  0
    0.2209   19.7242   14.2763 H   0  0  0  0  0
   -0.1287   17.7927   16.6531 H   0  0  0  0  0
    0.4999   17.3682   15.0248 H   0  0  0  0  0
   -2.2208   18.6196   15.2420 H   0  0  0  0  0
   -2.0163   16.8991   15.7160 H   0  0  0  0  0
   -0.9361   16.4586   13.4917 H   0  0  0  0  0
   -1.2774   18.1589   13.0239 H   0  0  0  0  0
   -3.7710   17.6584   13.6988 H   0  0  0  0  0
   -3.3003   15.9251   13.6800 H   0  0  0  0  0
   -2.8828   17.8512   11.4556 H   0  0  0  0  0
   -4.0302   16.6714   11.4870 H   0  0  0  0  0
   -2.4354   16.2672   11.4378 H   0  0  0  0  0
    7.8453   16.6262   15.4822 H   0  0  0  0  0
    6.9283   15.7802   14.4085 H   0  0  0  0  0
  2  1  1  0  0  0
  2  5  1  0  0  0
  3  2  1  0  0  0
  3  4  2  0  0  0
  5  6  1  0  0  0
  6  7  1  0  0  0
  7  8  1  0  0  0
  8  9  1  0  0  0
 11 10  1  0  0  0
 11 14  1  0  0  0
 12 11  1  0  0  0
 12 13  2  0  0  0
 14 15  1  0  0  0
 15 16  1  0  0  0
 16 18  1  0  0  0
 16 17  2  0  0  0
 10  3  1  0  0  0
 19 20  1  0  0  0
 20 23  1  0  0  0
 20 21  1  0  0  0
 21 22  2  0  0  0
 21 28  1  0  0  0
 23 24  1  0  0  0
 24 25  1  0  0  0
 25 26  1  0  0  0
 26 27  1  0  0  0
 12 19  1  0  0  0
  1 29  1  0  0  0
  2 30  1  0  0  0
  5 31  1  0  0  0
  5 32  1  0  0  0
  6 33  1  0  0  0
  6 34  1  0  0  0
  7 35  1  0  0  0
  7 36  1  0  0  0
  8 37  1  0  0  0
  8 38  1  0  0  0
  9 39  1  0  0  0
  9 40  1  0  0  0
  9 41  1  0  0  0
 10 42  1  0  0  0
 11 43  1  0  0  0
 14 44  1  0  0  0
 14 45  1  0  0  0
 15 46  1  0  0  0
 15 47  1  0  0  0
 18 48  1  0  0  0
 18 49  1  0  0  0
 19 50  1  0  0  0
 20 51  1  0  0  0
 23 52  1  0  0  0
 23 53  1  0  0  0
 24 54  1  0  0  0
 24 55  1  0  0  0
 25 56  1  0  0  0
 25 57  1  0  0  0
 26 58  1  0  0  0
 26 59  1  0  0  0
 27 60  1  0  0  0
 27 61  1  0  0  0
 27 62  1  0  0  0
  1 63  1  0  0  0
  1 64  1  0  0  0
M  END
$$$$
