1nm6_ligand
  -I-interpret- 

 69 72  0  0  0  0  0  0  0  0999 V2000
   19.7500  -14.6900   25.8430 C   0  0  0  0  0
   19.8720  -16.0970   25.4690 C   0  0  0  0  0
   21.1040  -16.6450   24.8970 C   0  0  0  0  0
   22.2150  -15.7450   24.6160 C   0  0  0  0  0
   22.0730  -14.3280   24.9530 C   0  0  0  0  0
   20.8640  -13.7860   25.5750 C   0  0  0  0  0
   18.6660  -17.0280   25.5720 C   0  0  0  0  0
   18.1190  -17.3620   24.1480 C   0  0  0  0  0
   17.4830  -16.1590   23.5540 N   0  0  0  0  0
   18.1680  -15.4220   22.5500 C   0  0  0  0  0
   17.6550  -14.1290   22.0720 C   0  0  0  0  0
   18.4010  -13.4040   21.1440 N   0  0  0  0  0
   19.7030  -13.7840   20.6150 C   0  0  0  0  0
   20.1550  -15.0150   21.1180 C   0  0  0  0  0
   19.4310  -15.7840   22.0220 N   0  0  0  0  0
   16.5820  -13.7110   22.5080 O   0  0  0  0  0
   20.5490  -12.9380   19.4210 Cl  0  0  0  0  0
   17.8220  -12.1540   20.6190 C   0  0  0  0  0
   16.4000  -12.3880   20.1360 C   0  0  0  0  0
   15.5600  -11.3670   20.3840 N   0  0  0  0  0
   16.1010  -13.4250   19.5430 O   0  0  0  0  0
   14.1190  -11.5080   20.0730 C   0  0  0  0  0
   13.2220  -11.4900   21.3090 C   0  0  0  0  0
   12.3980  -12.6360   21.6430 C   0  0  0  0  0
   11.5260  -12.6240   22.7980 C   0  0  0  0  0
   11.4830  -11.4190   23.6050 C   0  0  0  0  0
   13.1860  -10.2860   22.1300 C   0  0  0  0  0
   12.4100  -13.8930   20.7730 C   0  0  0  0  0
   12.3020  -10.2670   23.2760 C   0  0  0  0  0
   13.6320  -14.7580   21.1300 C   0  0  0  0  0
   17.0410  -18.4520   24.2150 C   0  0  0  0  0
   16.6590  -19.0130   22.8870 N   0  0  0  0  0
   13.6570  -15.9310   20.2380 N   0  0  0  0  0
   14.9430  -16.6860   20.2790 C   0  0  0  0  0
   15.1150  -17.4590   21.6010 C   0  0  0  0  0
   16.4310  -18.2960   21.6030 C   0  0  0  0  0
   18.8448  -14.3227   26.3129 H   0  0  0  0  0
   21.1881  -17.7049   24.6857 H   0  0  0  0  0
   23.1283  -16.1176   24.1664 H   0  0  0  0  0
   22.8938  -13.6547   24.7338 H   0  0  0  0  0
   20.7974  -12.7348   25.8313 H   0  0  0  0  0
   18.9637  -17.9656   26.0642 H   0  0  0  0  0
   17.8688  -16.5377   26.1499 H   0  0  0  0  0
   18.9436  -17.7126   23.5101 H   0  0  0  0  0
   16.5495  -16.4755   23.1127 H   0  0  0  0  0
   21.1223  -15.3862   20.7826 H   0  0  0  0  0
   17.8024  -11.3945   21.4144 H   0  0  0  0  0
   18.4260  -11.7952   19.7726 H   0  0  0  0  0
   15.9074  -10.5156   20.7770 H   0  0  0  0  0
   13.8136  -10.6750   19.4229 H   0  0  0  0  0
   13.9602  -12.4655   19.5553 H   0  0  0  0  0
   10.9236  -13.4886   23.0523 H   0  0  0  0  0
   10.8283  -11.3785   24.4680 H   0  0  0  0  0
   13.8041   -9.4287   21.8890 H   0  0  0  0  0
   11.4961  -14.4783   20.9520 H   0  0  0  0  0
   12.4726  -13.6106   19.7118 H   0  0  0  0  0
   12.2510   -9.3800   23.8971 H   0  0  0  0  0
   14.5569  -14.1795   20.9892 H   0  0  0  0  0
   13.5590  -15.1007   22.1727 H   0  0  0  0  0
   17.4163  -19.2809   24.8331 H   0  0  0  0  0
   16.1357  -18.0244   24.6706 H   0  0  0  0  0
   17.4376  -19.7235   22.6519 H   0  0  0  0  0
   12.8671  -16.6071   20.5301 H   0  0  0  0  0
   14.9642  -17.4100   19.4511 H   0  0  0  0  0
   15.7806  -15.9798   20.1812 H   0  0  0  0  0
   15.1557  -16.7459   22.4375 H   0  0  0  0  0
   14.2663  -18.1459   21.7347 H   0  0  0  0  0
   17.2712  -17.6094   21.4227 H   0  0  0  0  0
   16.3671  -19.0325   20.7885 H   0  0  0  0  0
  1  2  4  0  0  0
  1  6  4  0  0  0
  2  3  4  0  0  0
  2  7  1  0  0  0
  3  4  4  0  0  0
  4  5  4  0  0  0
  5  6  4  0  0  0
  7  8  1  0  0  0
  8  9  1  0  0  0
  8 31  1  0  0  0
  9 10  1  0  0  0
 10 11  1  0  0  0
 10 15  2  0  0  0
 11 12  1  0  0  0
 11 16  2  0  0  0
 12 13  1  0  0  0
 12 18  1  0  0  0
 13 14  2  0  0  0
 13 17  1  0  0  0
 14 15  1  0  0  0
 18 19  1  0  0  0
 19 20  1  0  0  0
 19 21  2  0  0  0
 20 22  1  0  0  0
 22 23  1  0  0  0
 23 24  4  0  0  0
 23 27  4  0  0  0
 24 25  4  0  0  0
 24 28  1  0  0  0
 25 26  4  0  0  0
 26 29  4  0  0  0
 27 29  4  0  0  0
 28 30  1  0  0  0
 30 33  1  0  0  0
 31 32  1  0  0  0
 32 36  1  0  0  0
 33 34  1  0  0  0
 34 35  1  0  0  0
 35 36  1  0  0  0
  1 37  1  0  0  0
  3 38  1  0  0  0
  4 39  1  0  0  0
  5 40  1  0  0  0
  6 41  1  0  0  0
  7 42  1  0  0  0
  7 43  1  0  0  0
  8 44  1  0  0  0
  9 45  1  0  0  0
 14 46  1  0  0  0
 18 47  1  0  0  0
 18 48  1  0  0  0
 20 49  1  0  0  0
 22 50  1  0  0  0
 22 51  1  0  0  0
 25 52  1  0  0  0
 26 53  1  0  0  0
 27 54  1  0  0  0
 28 55  1  0  0  0
 28 56  1  0  0  0
 29 57  1  0  0  0
 30 58  1  0  0  0
 30 59  1  0  0  0
 31 60  1  0  0  0
 31 61  1  0  0  0
 32 62  1  0  0  0
 33 63  1  0  0  0
 34 64  1  0  0  0
 34 65  1  0  0  0
 35 66  1  0  0  0
 35 67  1  0  0  0
 36 68  1  0  0  0
 36 69  1  0  0  0
M  END
$$$$
