### 
### Created by X-TOOL on Mon Oct 24 22:47:15 2005
### 

@<TRIPOS>MOLECULE
1nm6_ligand
   69    72     1     0     0
SMALL
GAST_HUCK


@<TRIPOS>ATOM
      1 C8         19.7500  -14.6900   25.8430 C.ar      1 SUB1       -0.060
      2 C2         19.8720  -16.0970   25.4690 C.ar      1 SUB1       -0.041
      3 C10        21.1040  -16.6450   24.8970 C.ar      1 SUB1       -0.060
      4 C4         22.2150  -15.7450   24.6160 C.ar      1 SUB1       -0.069
      5 C5         22.0730  -14.3280   24.9530 C.ar      1 SUB1       -0.069
      6 C6         20.8640  -13.7860   25.5750 C.ar      1 SUB1       -0.069
      7 C11        18.6660  -17.0280   25.5720 C.3       1 SUB1        0.002
      8 C1         18.1190  -17.3620   24.1480 C.3       1 SUB1        0.053
      9 N18        17.4830  -16.1590   23.5540 N.3       1 SUB1       -0.233
     10 C21        18.1680  -15.4220   22.5500 C.2       1 SUB1        0.176
     11 C22        17.6550  -14.1290   22.0720 C.2       1 SUB1        0.271
     12 N23        18.4010  -13.4040   21.1440 N.am      1 SUB1       -0.183
     13 C24        19.7030  -13.7840   20.6150 C.2       1 SUB1        0.157
     14 C25        20.1550  -15.0150   21.1180 C.2       1 SUB1        0.004
     15 N3         19.4310  -15.7840   22.0220 N.2       1 SUB1       -0.312
     16 O28        16.5820  -13.7110   22.5080 O.2       1 SUB1       -0.391
     17 CL2        20.5490  -12.9380   19.4210 Cl        1 SUB1       -0.029
     18 C33        17.8220  -12.1540   20.6190 C.3       1 SUB1        0.152
     19 C34        16.4000  -12.3880   20.1360 C.2       1 SUB1        0.209
     20 N37        15.5600  -11.3670   20.3840 N.am      1 SUB1       -0.274
     21 O38        16.1010  -13.4250   19.5430 O.2       1 SUB1       -0.394
     22 C39        14.1190  -11.5080   20.0730 C.3       1 SUB1        0.062
     23 C40        13.2220  -11.4900   21.3090 C.ar      1 SUB1       -0.019
     24 C43        12.3980  -12.6360   21.6430 C.ar      1 SUB1       -0.038
     25 C44        11.5260  -12.6240   22.7980 C.ar      1 SUB1       -0.067
     26 C45        11.4830  -11.4190   23.6050 C.ar      1 SUB1       -0.075
     27 C15        13.1860  -10.2860   22.1300 C.ar      1 SUB1       -0.065
     28 C9         12.4100  -13.8930   20.7730 C.3       1 SUB1       -0.009
     29 C50        12.3020  -10.2670   23.2760 C.ar      1 SUB1       -0.075
     30 C3         13.6320  -14.7580   21.1300 C.3       1 SUB1        0.005
     31 C7         17.0410  -18.4520   24.2150 C.3       1 SUB1        0.018
     32 N2         16.6590  -19.0130   22.8870 N.3       1 SUB1       -0.314
     33 N5         13.6570  -15.9310   20.2380 N.3       1 SUB1       -0.314
     34 C12        14.9430  -16.6860   20.2790 C.3       1 SUB1       -0.003
     35 C13        15.1150  -17.4590   21.6010 C.3       1 SUB1       -0.028
     36 C14        16.4310  -18.2960   21.6030 C.3       1 SUB1       -0.003
     37 H11        18.8448  -14.3227   26.3129 H         1 SUB1        0.056
     38 H31        21.1881  -17.7049   24.6857 H         1 SUB1        0.056
     39 H41        23.1283  -16.1176   24.1664 H         1 SUB1        0.060
     40 H51        22.8938  -13.6547   24.7338 H         1 SUB1        0.056
     41 H61        20.7974  -12.7348   25.8313 H         1 SUB1        0.060
     42 H71        18.9637  -17.9656   26.0642 H         1 SUB1        0.045
     43 H72        17.8688  -16.5377   26.1499 H         1 SUB1        0.045
     44 H81        18.9436  -17.7126   23.5101 H         1 SUB1        0.056
     45 H91        16.5495  -16.4755   23.1127 H         1 SUB1        0.164
     46 H141       21.1223  -15.3862   20.7826 H         1 SUB1        0.044
     47 H181       17.8024  -11.3945   21.4144 H         1 SUB1        0.087
     48 H182       18.4260  -11.7952   19.7726 H         1 SUB1        0.087
     49 H201       15.9074  -10.5156   20.7770 H         1 SUB1        0.188
     50 H221       13.8136  -10.6750   19.4229 H         1 SUB1        0.067
     51 H222       13.9602  -12.4655   19.5553 H         1 SUB1        0.067
     52 H251       10.9236  -13.4886   23.0523 H         1 SUB1        0.054
     53 H261       10.8283  -11.3785   24.4680 H         1 SUB1        0.054
     54 H271       13.8041   -9.4287   21.8890 H         1 SUB1        0.054
     55 H281       11.4961  -14.4783   20.9520 H         1 SUB1        0.042
     56 H282       12.4726  -13.6106   19.7118 H         1 SUB1        0.042
     57 H291       12.2510   -9.3800   23.8971 H         1 SUB1        0.054
     58 H301       14.5569  -14.1795   20.9892 H         1 SUB1        0.045
     59 H302       13.5590  -15.1007   22.1727 H         1 SUB1        0.045
     60 H311       17.4163  -19.2809   24.8331 H         1 SUB1        0.045
     61 H312       16.1357  -18.0244   24.6706 H         1 SUB1        0.045
     62 H321       17.4376  -19.7235   22.6519 H         1 SUB1        0.122
     63 H331       12.8671  -16.6071   20.5301 H         1 SUB1        0.122
     64 H341       14.9642  -17.4100   19.4511 H         1 SUB1        0.042
     65 H342       15.7806  -15.9798   20.1812 H         1 SUB1        0.042
     66 H351       15.1557  -16.7459   22.4375 H         1 SUB1        0.029
     67 H352       14.2663  -18.1459   21.7347 H         1 SUB1        0.029
     68 H361       17.2712  -17.6094   21.4227 H         1 SUB1        0.042
     69 H362       16.3671  -19.0325   20.7885 H         1 SUB1        0.042
@<TRIPOS>BOND
     1    1    2 ar 
     2    1    6 ar 
     3    2    3 ar 
     4    2    7 1  
     5    3    4 ar 
     6    4    5 ar 
     7    5    6 ar 
     8    7    8 1  
     9    8    9 1  
    10    8   31 1  
    11    9   10 1  
    12   10   11 1  
    13   10   15 2  
    14   11   12 am 
    15   11   16 2  
    16   12   13 am 
    17   12   18 1  
    18   13   14 2  
    19   13   17 1  
    20   14   15 1  
    21   18   19 1  
    22   19   20 am 
    23   19   21 2  
    24   20   22 1  
    25   22   23 1  
    26   23   24 ar 
    27   23   27 ar 
    28   24   25 ar 
    29   24   28 1  
    30   25   26 ar 
    31   26   29 ar 
    32   27   29 ar 
    33   28   30 1  
    34   30   33 1  
    35   31   32 1  
    36   32   36 1  
    37   33   34 1  
    38   34   35 1  
    39   35   36 1  
    40    1   37 1  
    41    3   38 1  
    42    4   39 1  
    43    5   40 1  
    44    6   41 1  
    45    7   42 1  
    46    7   43 1  
    47    8   44 1  
    48    9   45 1  
    49   14   46 1  
    50   18   47 1  
    51   18   48 1  
    52   20   49 1  
    53   22   50 1  
    54   22   51 1  
    55   25   52 1  
    56   26   53 1  
    57   27   54 1  
    58   28   55 1  
    59   28   56 1  
    60   29   57 1  
    61   30   58 1  
    62   30   59 1  
    63   31   60 1  
    64   31   61 1  
    65   32   62 1  
    66   33   63 1  
    67   34   64 1  
    68   34   65 1  
    69   35   66 1  
    70   35   67 1  
    71   36   68 1  
    72   36   69 1  
@<TRIPOS>SUBSTRUCTURE
     1 SUB1        1 GROUP

