### 
### Created by X-TOOL on Mon Oct 24 23:19:34 2005
### 

@<TRIPOS>MOLECULE
1oss_ligand
   18    18     1     0     0
SMALL
GAST_HUCK


@<TRIPOS>ATOM
      1 C1         44.8550  -22.9570   62.4190 C.ar      1 SUB1        0.186
      2 C2         44.8680  -21.8170   63.2880 C.ar      1 SUB1       -0.007
      3 C3         43.6490  -21.2040   63.7150 C.ar      1 SUB1       -0.057
      4 C4         42.3960  -21.7230   63.2760 C.ar      1 SUB1       -0.062
      5 C5         42.3380  -22.8600   62.4030 C.ar      1 SUB1       -0.057
      6 C6         43.5830  -23.4710   61.9810 C.ar      1 SUB1       -0.007
      7 C          46.1000  -23.6220   61.9680 C.cat     1 SUB1        0.316
      8 N1         46.0620  -24.4620   60.9410 N.pl3     1 SUB1       -0.200
      9 N2         47.2530  -23.3680   62.6390 N.pl3     1 SUB1       -0.200
     10 H21        45.8157  -21.4139   63.6262 H         1 SUB1        0.066
     11 H31        43.6776  -20.3434   64.3735 H         1 SUB1        0.062
     12 H41        41.4764  -21.2531   63.6056 H         1 SUB1        0.062
     13 H51        41.3854  -23.2531   62.0668 H         1 SUB1        0.062
     14 H61        43.5560  -24.3318   61.3227 H         1 SUB1        0.066
     15 H81        46.9246  -24.9268   60.6236 H         1 SUB1        0.192
     16 H82        45.1699  -24.6491   60.4614 H         1 SUB1        0.192
     17 H91        47.2531  -22.7113   63.4325 H         1 SUB1        0.192
     18 H92        48.1274  -23.8320   62.3544 H         1 SUB1        0.192
@<TRIPOS>BOND
     1    1    2 ar 
     2    1    6 ar 
     3    1    7 1  
     4    2    3 ar 
     5    3    4 ar 
     6    4    5 ar 
     7    5    6 ar 
     8    7    8 1  
     9    7    9 1  
    10    2   10 1  
    11    3   11 1  
    12    4   12 1  
    13    5   13 1  
    14    6   14 1  
    15    8   15 1  
    16    8   16 1  
    17    9   17 1  
    18    9   18 1  
@<TRIPOS>SUBSTRUCTURE
     1 SUB1        1 GROUP

