1oss_ligand
  -I-interpret- 

 18 18  0  0  0  0  0  0  0  0999 V2000
   44.8550  -22.9570   62.4190 C   0  0  0  0  0
   44.8680  -21.8170   63.2880 C   0  0  0  0  0
   43.6490  -21.2040   63.7150 C   0  0  0  0  0
   42.3960  -21.7230   63.2760 C   0  0  0  0  0
   42.3380  -22.8600   62.4030 C   0  0  0  0  0
   43.5830  -23.4710   61.9810 C   0  0  0  0  0
   46.1000  -23.6220   61.9680 C   0  3  0  0  0
   46.0620  -24.4620   60.9410 N   0  0  0  0  0
   47.2530  -23.3680   62.6390 N   0  0  0  0  0
   45.8157  -21.4139   63.6262 H   0  0  0  0  0
   43.6776  -20.3434   64.3735 H   0  0  0  0  0
   41.4764  -21.2531   63.6056 H   0  0  0  0  0
   41.3854  -23.2531   62.0668 H   0  0  0  0  0
   43.5560  -24.3318   61.3227 H   0  0  0  0  0
   46.9246  -24.9268   60.6236 H   0  0  0  0  0
   45.1699  -24.6491   60.4614 H   0  0  0  0  0
   47.2531  -22.7113   63.4325 H   0  0  0  0  0
   48.1274  -23.8320   62.3544 H   0  0  0  0  0
  1  2  4  0  0  0
  1  6  4  0  0  0
  1  7  1  0  0  0
  2  3  4  0  0  0
  3  4  4  0  0  0
  4  5  4  0  0  0
  5  6  4  0  0  0
  7  8  1  0  0  0
  7  9  1  0  0  0
  2 10  1  0  0  0
  3 11  1  0  0  0
  4 12  1  0  0  0
  5 13  1  0  0  0
  6 14  1  0  0  0
  8 15  1  0  0  0
  8 16  1  0  0  0
  9 17  1  0  0  0
  9 18  1  0  0  0
M  END
$$$$
