2cf9_ligand
  -I-interpret- 

 68 72  0  0  0  0  0  0  0  0999 V2000
   10.5790  -12.1500   24.1350 N   0  0  0  0  0
   11.3620  -11.0830   23.9360 C   0  3  0  0  0
   11.1250   -9.9770   24.6150 N   0  0  0  0  0
   12.4910  -11.1410   22.9380 C   0  0  0  0  0
   12.7220  -12.3240   22.2230 C   0  0  0  0  0
   13.7750  -12.3820   21.3020 C   0  0  0  0  0
   14.6080  -11.2840   21.0810 C   0  0  0  0  0
   14.3670  -10.1020   21.7950 C   0  0  0  0  0
   13.3120  -10.0380   22.7160 C   0  0  0  0  0
   15.7330  -11.3330   20.0920 C   0  0  0  0  0
   15.5650  -12.3140   18.9750 N   0  0  0  0  0
   14.6770  -11.7870   17.9140 C   0  0  0  0  0
   15.4920  -11.7650   16.6130 C   0  0  0  0  0
   16.9550  -11.8290   17.0430 C   0  0  0  0  0
   16.9100  -12.5340   18.3950 C   0  0  0  0  0
   17.9300  -12.0660   19.4320 C   0  0  0  0  0
   18.8760  -13.2080   19.8450 C   0  0  0  0  0
   18.2860  -13.6200   21.1420 N   0  0  0  0  0
   17.3080  -12.8160   21.5770 C   0  0  0  0  0
   16.6680  -13.0300   22.5990 O   0  0  0  0  0
   17.1340  -11.6350   20.6620 C   0  0  0  0  0
   18.7650  -14.8600   21.7930 C   0  0  0  0  0
   19.6430  -14.5080   22.9820 C   0  0  0  0  0
   21.0250  -14.3920   22.8230 C   0  0  0  0  0
   21.8500  -14.0390   23.8980 C   0  0  0  0  0
   21.2810  -13.7970   25.1490 C   0  0  0  0  0
   22.0800  -13.4510   26.2110 O   0  0  0  0  0
   21.6130  -12.5490   27.2220 C   0  0  0  0  0
   19.8990  -13.9220   25.3160 C   0  0  0  0  0
   19.0790  -14.2710   24.2430 C   0  0  0  0  0
   20.3550  -12.7350   19.9340 C   0  0  0  0  0
   21.0120  -12.4660   18.5790 C   0  0  0  0  0
   20.6080  -11.5310   20.8420 C   0  0  0  0  0
   10.7443  -13.0089   23.6102 H   0  0  0  0  0
    9.8170  -12.1043   24.8115 H   0  0  0  0  0
   11.7074   -9.1528   24.4668 H   0  0  0  0  0
   10.3593   -9.9460   25.2882 H   0  0  0  0  0
   12.0854  -13.1942   22.3830 H   0  0  0  0  0
   13.9478  -13.3036   20.7461 H   0  0  0  0  0
   15.0015   -9.2305   21.6337 H   0  0  0  0  0
   13.1320   -9.1137   23.2651 H   0  0  0  0  0
   15.6759  -10.3041   19.7366 H   0  0  0  0  0
   14.3281  -10.7857   18.1665 H   0  0  0  0  0
   13.7936  -12.4159   17.8040 H   0  0  0  0  0
   15.2873  -10.8670   16.0301 H   0  0  0  0  0
   15.2305  -12.6017   15.9652 H   0  0  0  0  0
   17.4112  -10.8411   17.1065 H   0  0  0  0  0
   17.5758  -12.3589   16.3205 H   0  0  0  0  0
   17.1499  -13.5765   18.1859 H   0  0  0  0  0
   18.5344  -11.2598   19.0162 H   0  0  0  0  0
   18.9418  -14.0315   19.1339 H   0  0  0  0  0
   17.4094  -10.7508   21.2368 H   0  0  0  0  0
   19.3435  -15.4437   21.0769 H   0  0  0  0  0
   17.9094  -15.4420   22.1355 H   0  0  0  0  0
   21.4695  -14.5794   21.8455 H   0  0  0  0  0
   22.9277  -13.9540   23.7588 H   0  0  0  0  0
   21.3665  -11.5902   26.7659 H   0  0  0  0  0
   20.7249  -12.9659   27.6969 H   0  0  0  0  0
   22.3936  -12.4073   27.9694 H   0  0  0  0  0
   19.4568  -13.7447   26.2963 H   0  0  0  0  0
   18.0019  -14.3592   24.3849 H   0  0  0  0  0
   20.8245  -13.6043   20.3945 H   0  0  0  0  0
   21.0038  -13.3798   17.9849 H   0  0  0  0  0
   20.4579  -11.6863   18.0564 H   0  0  0  0  0
   22.0408  -12.1409   18.7336 H   0  0  0  0  0
   20.0331  -10.6782   20.4810 H   0  0  0  0  0
   20.3006  -11.7737   21.8592 H   0  0  0  0  0
   21.6700  -11.2859   20.8308 H   0  0  0  0  0
  1  2  1  0  0  0
  2  3  1  0  0  0
  2  4  1  0  0  0
  4  5  4  0  0  0
  4  9  4  0  0  0
  5  6  4  0  0  0
  6  7  4  0  0  0
  7  8  4  0  0  0
  7 10  1  0  0  0
  8  9  4  0  0  0
 10 11  1  0  0  0
 10 21  1  0  0  0
 11 12  1  0  0  0
 11 15  1  0  0  0
 12 13  1  0  0  0
 13 14  1  0  0  0
 14 15  1  0  0  0
 15 16  1  0  0  0
 16 17  1  0  0  0
 16 21  1  0  0  0
 17 18  1  0  0  0
 17 31  1  0  0  0
 18 19  1  0  0  0
 18 22  1  0  0  0
 19 20  2  0  0  0
 19 21  1  0  0  0
 22 23  1  0  0  0
 23 24  4  0  0  0
 23 30  4  0  0  0
 24 25  4  0  0  0
 25 26  4  0  0  0
 26 27  1  0  0  0
 26 29  4  0  0  0
 27 28  1  0  0  0
 29 30  4  0  0  0
 31 32  1  0  0  0
 31 33  1  0  0  0
  1 34  1  0  0  0
  1 35  1  0  0  0
  3 36  1  0  0  0
  3 37  1  0  0  0
  5 38  1  0  0  0
  6 39  1  0  0  0
  8 40  1  0  0  0
  9 41  1  0  0  0
 10 42  1  0  0  0
 12 43  1  0  0  0
 12 44  1  0  0  0
 13 45  1  0  0  0
 13 46  1  0  0  0
 14 47  1  0  0  0
 14 48  1  0  0  0
 15 49  1  0  0  0
 16 50  1  0  0  0
 17 51  1  0  0  0
 21 52  1  0  0  0
 22 53  1  0  0  0
 22 54  1  0  0  0
 24 55  1  0  0  0
 25 56  1  0  0  0
 28 57  1  0  0  0
 28 58  1  0  0  0
 28 59  1  0  0  0
 29 60  1  0  0  0
 30 61  1  0  0  0
 31 62  1  0  0  0
 32 63  1  0  0  0
 32 64  1  0  0  0
 32 65  1  0  0  0
 33 66  1  0  0  0
 33 67  1  0  0  0
 33 68  1  0  0  0
M  END
$$$$
