### 
### Created by X-TOOL on Sun Jun  3 11:43:57 2007
### 

@<TRIPOS>MOLECULE
2cf9_ligand
   68    72     1     0     0
SMALL
GAST_HUCK


@<TRIPOS>ATOM
      1 N1         10.5790  -12.1500   24.1350 N.pl3     1 SUB1       -0.273
      2 C3         11.3620  -11.0830   23.9360 C.cat     1 SUB1        0.232
      3 N2         11.1250   -9.9770   24.6150 N.pl3     1 SUB1       -0.273
      4 C4         12.4910  -11.1410   22.9380 C.ar      1 SUB1        0.019
      5 C9         12.7220  -12.3240   22.2230 C.ar      1 SUB1       -0.063
      6 C8         13.7750  -12.3820   21.3020 C.ar      1 SUB1       -0.059
      7 C7         14.6080  -11.2840   21.0810 C.ar      1 SUB1       -0.023
      8 C6         14.3670  -10.1020   21.7950 C.ar      1 SUB1       -0.059
      9 C5         13.3120  -10.0380   22.7160 C.ar      1 SUB1       -0.063
     10 C10        15.7330  -11.3330   20.0920 C.3       1 SUB1        0.064
     11 N11        15.5650  -12.3140   18.9750 N.3       1 SUB1       -0.283
     12 C12        14.6770  -11.7870   17.9140 C.3       1 SUB1        0.002
     13 C13        15.4920  -11.7650   16.6130 C.3       1 SUB1       -0.039
     14 C14        16.9550  -11.8290   17.0430 C.3       1 SUB1       -0.036
     15 C15        16.9100  -12.5340   18.3950 C.3       1 SUB1        0.020
     16 C16        17.9300  -12.0660   19.4320 C.3       1 SUB1        0.021
     17 C17        18.8760  -13.2080   19.8450 C.3       1 SUB1        0.056
     18 N19        18.2860  -13.6200   21.1420 N.am      1 SUB1       -0.259
     19 C20        17.3080  -12.8160   21.5770 C.2       1 SUB1        0.187
     20 O21        16.6680  -13.0300   22.5990 O.2       1 SUB1       -0.396
     21 C22        17.1340  -11.6350   20.6620 C.3       1 SUB1        0.080
     22 C23        18.7650  -14.8600   21.7930 C.3       1 SUB1        0.063
     23 C24        19.6430  -14.5080   22.9820 C.ar      1 SUB1       -0.032
     24 C32        21.0250  -14.3920   22.8230 C.ar      1 SUB1       -0.067
     25 C31        21.8500  -14.0390   23.8980 C.ar      1 SUB1       -0.040
     26 C30        21.2810  -13.7970   25.1490 C.ar      1 SUB1        0.084
     27 O29        22.0800  -13.4510   26.2110 O.3       1 SUB1       -0.326
     28 C28        21.6130  -12.5490   27.2220 C.3       1 SUB1        0.058
     29 C26        19.8990  -13.9220   25.3160 C.ar      1 SUB1       -0.040
     30 C25        19.0790  -14.2710   24.2430 C.ar      1 SUB1       -0.067
     31 C18        20.3550  -12.7350   19.9340 C.3       1 SUB1       -0.023
     32 C41        21.0120  -12.4660   18.5790 C.3       1 SUB1       -0.060
     33 C42        20.6080  -11.5310   20.8420 C.3       1 SUB1       -0.060
     34 H          10.7443  -13.0089   23.6102 H         1 SUB1        0.318
     35 H           9.8170  -12.1043   24.8115 H         1 SUB1        0.318
     36 H          11.7074   -9.1528   24.4668 H         1 SUB1        0.318
     37 H          10.3593   -9.9460   25.2882 H         1 SUB1        0.318
     38 H          12.0854  -13.1942   22.3830 H         1 SUB1        0.060
     39 H          13.9478  -13.3036   20.7461 H         1 SUB1        0.056
     40 H          15.0015   -9.2305   21.6337 H         1 SUB1        0.056
     41 H          13.1320   -9.1137   23.2651 H         1 SUB1        0.060
     42 H          15.6759  -10.3041   19.7366 H         1 SUB1        0.065
     43 H          14.3281  -10.7857   18.1665 H         1 SUB1        0.043
     44 H          13.7936  -12.4159   17.8040 H         1 SUB1        0.043
     45 H          15.2873  -10.8670   16.0301 H         1 SUB1        0.028
     46 H          15.2305  -12.6017   15.9652 H         1 SUB1        0.028
     47 H          17.4112  -10.8411   17.1065 H         1 SUB1        0.028
     48 H          17.5758  -12.3589   16.3205 H         1 SUB1        0.028
     49 H          17.1499  -13.5765   18.1859 H         1 SUB1        0.047
     50 H          18.5344  -11.2598   19.0162 H         1 SUB1        0.037
     51 H          18.9418  -14.0315   19.1339 H         1 SUB1        0.057
     52 H          17.4094  -10.7508   21.2368 H         1 SUB1        0.058
     53 H          19.3435  -15.4437   21.0769 H         1 SUB1        0.066
     54 H          17.9094  -15.4420   22.1355 H         1 SUB1        0.066
     55 H          21.4695  -14.5794   21.8455 H         1 SUB1        0.053
     56 H          22.9277  -13.9540   23.7588 H         1 SUB1        0.052
     57 H          21.3665  -11.5902   26.7659 H         1 SUB1        0.058
     58 H          20.7249  -12.9659   27.6969 H         1 SUB1        0.058
     59 H          22.3936  -12.4073   27.9694 H         1 SUB1        0.058
     60 H          19.4568  -13.7447   26.2963 H         1 SUB1        0.052
     61 H          18.0019  -14.3592   24.3849 H         1 SUB1        0.053
     62 H          20.8245  -13.6043   20.3945 H         1 SUB1        0.032
     63 H          21.0038  -13.3798   17.9849 H         1 SUB1        0.023
     64 H          20.4579  -11.6863   18.0564 H         1 SUB1        0.023
     65 H          22.0408  -12.1409   18.7336 H         1 SUB1        0.023
     66 H          20.0331  -10.6782   20.4810 H         1 SUB1        0.023
     67 H          20.3006  -11.7737   21.8592 H         1 SUB1        0.023
     68 H          21.6700  -11.2859   20.8308 H         1 SUB1        0.023
@<TRIPOS>BOND
     1    1    2 1  
     2    2    3 1  
     3    2    4 1  
     4    4    5 ar 
     5    4    9 ar 
     6    5    6 ar 
     7    6    7 ar 
     8    7    8 ar 
     9    7   10 1  
    10    8    9 ar 
    11   10   11 1  
    12   10   21 1  
    13   11   12 1  
    14   11   15 1  
    15   12   13 1  
    16   13   14 1  
    17   14   15 1  
    18   15   16 1  
    19   16   17 1  
    20   16   21 1  
    21   17   18 1  
    22   17   31 1  
    23   18   19 am 
    24   18   22 1  
    25   19   20 2  
    26   19   21 1  
    27   22   23 1  
    28   23   24 ar 
    29   23   30 ar 
    30   24   25 ar 
    31   25   26 ar 
    32   26   27 1  
    33   26   29 ar 
    34   27   28 1  
    35   29   30 ar 
    36   31   32 1  
    37   31   33 1  
    38    1   34 1  
    39    1   35 1  
    40    3   36 1  
    41    3   37 1  
    42    5   38 1  
    43    6   39 1  
    44    8   40 1  
    45    9   41 1  
    46   10   42 1  
    47   12   43 1  
    48   12   44 1  
    49   13   45 1  
    50   13   46 1  
    51   14   47 1  
    52   14   48 1  
    53   15   49 1  
    54   16   50 1  
    55   17   51 1  
    56   21   52 1  
    57   22   53 1  
    58   22   54 1  
    59   24   55 1  
    60   25   56 1  
    61   28   57 1  
    62   28   58 1  
    63   28   59 1  
    64   29   60 1  
    65   30   61 1  
    66   31   62 1  
    67   32   63 1  
    68   32   64 1  
    69   32   65 1  
    70   33   66 1  
    71   33   67 1  
    72   33   68 1  
@<TRIPOS>SUBSTRUCTURE
     1 SUB1        1 GROUP

