1bai_ligand
  -I-interpret- 

128128  0  0  0  0  0  0  0  0999 V2000
    9.0110   16.0520   33.5660 N   0  3  0  0  0
    7.7380   15.7040   34.2690 C   0  0  0  0  0
    6.5830   16.5830   33.6910 C   0  0  0  0  0
    6.7320   17.8130   33.5640 O   0  0  0  0  0
    7.9330   15.8910   35.7790 C   0  0  0  0  0
    6.7740   15.3950   36.7100 C   0  0  0  0  0
    6.9490   13.9610   37.3230 C   0  0  0  0  0
    7.4490   13.9370   38.7040 N   0  0  0  0  0
    6.7710   14.3790   39.7660 C   0  3  0  0  0
    5.5520   14.8650   39.6020 N   0  0  0  0  0
    7.3540   14.4510   40.9720 N   0  0  0  0  0
    8.9210   15.9360   32.5470 H   0  0  0  0  0
    9.2060   17.0550   33.8130 H   0  0  0  0  0
    9.7820   15.4530   33.9010 H   0  0  0  0  0
    8.3470   13.5730   38.8700 H   0  0  0  0  0
    5.1420   14.8960   38.6920 H   0  0  0  0  0
    5.0350   15.1990   40.3920 H   0  0  0  0  0
    8.3050   14.1720   41.0930 H   0  0  0  0  0
    6.8260   14.7880   41.7540 H   0  0  0  0  0
    5.4770   15.9390   33.2840 N   0  0  0  0  0
    4.3340   16.6170   32.6700 C   0  0  0  0  0
    2.9980   16.2560   33.3700 C   0  0  0  0  0
    2.3670   15.2410   33.1030 O   0  0  0  0  0
    4.3300   16.3670   31.0750 C   0  0  0  0  0
    3.0980   16.9810   30.4060 C   0  0  0  0  0
    5.5790   16.9930   30.4220 C   0  0  0  0  0
    5.3750   14.9710   33.4070 H   0  0  0  0  0
    2.5100   17.1660   34.1940 N   0  0  0  0  0
    1.3020   16.9140   34.9570 C   0  0  0  0  0
   -0.0030   17.4050   34.3440 C   0  0  0  0  0
   -0.8950   17.8800   35.0450 O   0  0  0  0  0
    1.4900   17.4170   36.4090 C   0  0  0  0  0
    2.8590   17.0690   37.0590 C   0  0  0  0  0
    3.0070   17.6220   38.4760 C   0  0  0  0  0
    3.0600   15.5650   37.0710 C   0  0  0  0  0
    2.9900   18.0140   34.3260 H   0  0  0  0  0
   -0.1410   17.1960   33.0470 N   0  0  0  0  0
   -1.3440   17.5610   32.2900 C   0  0  0  0  0
   -2.4520   16.5880   32.7810 C   0  0  0  0  0
   -2.2050   15.3880   32.9240 O   0  0  0  0  0
   -0.9770   17.4800   30.7780 C   0  0  0  0  0
   -2.1030   17.1740   29.8710 C   0  0  0  0  0
   -2.5970   15.8810   29.7660 C   0  0  0  0  0
   -2.7080   18.1840   29.1300 C   0  0  0  0  0
   -3.7030   15.5880   28.9350 C   0  0  0  0  0
   -3.8230   17.9050   28.2830 C   0  0  0  0  0
   -4.3160   16.6040   28.1940 C   0  0  0  0  0
    0.5910   16.7580   32.5720 H   0  0  0  0  0
   -3.6150   17.1340   33.1380 N   0  0  0  0  0
   -4.7260   16.3560   33.6930 C   0  0  0  0  0
   -6.1110   16.6730   33.1200 C   0  0  0  0  0
   -6.5340   17.8280   33.0350 O   0  0  0  0  0
   -4.7490   16.5280   35.2380 C   0  0  0  0  0
   -5.7820   15.7320   36.0120 C   0  0  0  0  0
   -7.1330   16.4530   36.1330 C   0  0  0  0  0
   -7.1410   17.6570   36.4500 O   0  0  0  0  0
   -8.2040   15.8290   35.9100 O   0  5  0  0  0
   -3.7680   18.0940   33.0000 H   0  0  0  0  0
   -6.8780   15.6240   32.8750 N   0  0  0  0  0
   -8.2070   15.7870   32.3260 C   0  0  0  0  0
   -9.2930   14.8000   32.8230 C   0  0  0  0  0
   -9.0260   13.6350   33.1250 O   0  0  0  0  0
   -8.1140   15.7090   30.8140 C   0  0  0  0  0
   -6.5530   14.7150   33.0600 H   0  0  0  0  0
  -10.5260   15.2950   32.8400 N   0  0  0  0  0
  -11.7100   14.5220   33.1910 C   0  0  0  0  0
  -11.7480   13.3340   32.2150 C   0  0  0  0  0
  -11.8750   12.1520   32.6500 O   0  0  0  0  0
  -12.9640   15.4120   32.9920 C   0  0  0  0  0
  -14.3140   14.6970   32.6330 C   0  0  0  0  0
  -14.5790   14.5300   31.0850 C   0  0  0  0  0
  -15.6820   13.5240   30.8280 C   0  0  0  0  0
  -10.6530   16.2140   32.5480 H   0  0  0  0  0
  -11.6130   13.6100   30.9970 N   0  0  0  0  0
    7.4980   14.6475   34.0790 H   0  0  0  0  0
    8.0722   16.9661   35.9656 H   0  0  0  0  0
    8.8455   15.3480   36.0661 H   0  0  0  0  0
    5.8448   15.3980   36.1213 H   0  0  0  0  0
    6.6828   16.1080   37.5426 H   0  0  0  0  0
    7.6580   13.4039   36.6929 H   0  0  0  0  0
    5.9701   13.4595   37.3049 H   0  0  0  0  0
    4.4799   17.6969   32.8202 H   0  0  0  0  0
    4.3322   15.2821   30.8937 H   0  0  0  0  0
    2.1885   16.5222   30.8210 H   0  0  0  0  0
    3.1395   16.7974   29.3222 H   0  0  0  0  0
    3.0805   18.0647   30.5939 H   0  0  0  0  0
    5.5826   18.0780   30.6032 H   0  0  0  0  0
    5.5611   16.8023   29.3388 H   0  0  0  0  0
    6.4842   16.5453   30.8582 H   0  0  0  0  0
    1.2045   15.8197   35.0117 H   0  0  0  0  0
    0.6968   16.9728   37.0283 H   0  0  0  0  0
    1.3832   18.5118   36.4063 H   0  0  0  0  0
    3.6482   17.5194   36.4390 H   0  0  0  0  0
    2.9282   18.7189   38.4516 H   0  0  0  0  0
    3.9881   17.3339   38.8815 H   0  0  0  0  0
    2.2113   17.2113   39.1149 H   0  0  0  0  0
    2.2592   15.0928   37.6590 H   0  0  0  0  0
    4.0347   15.3289   37.5229 H   0  0  0  0  0
    3.0318   15.1830   36.0398 H   0  0  0  0  0
   -1.6499   18.5923   32.5200 H   0  0  0  0  0
   -0.2175   16.6940   30.6541 H   0  0  0  0  0
   -0.5531   18.4499   30.4786 H   0  0  0  0  0
   -2.1275   15.0832   30.3300 H   0  0  0  0  0
   -2.3276   19.1969   29.1966 H   0  0  0  0  0
   -4.0772   14.5726   28.8719 H   0  0  0  0  0
   -4.2846   18.7019   27.7112 H   0  0  0  0  0
   -5.1650   16.3821   27.5576 H   0  0  0  0  0
   -4.5214   15.2989   33.4681 H   0  0  0  0  0
   -4.9266   17.5928   35.4492 H   0  0  0  0  0
   -3.7576   16.2394   35.6172 H   0  0  0  0  0
   -5.3934   15.5450   37.0239 H   0  0  0  0  0
   -5.9420   14.7729   35.4977 H   0  0  0  0  0
   -8.5457   16.7965   32.6019 H   0  0  0  0  0
   -7.7037   14.7311   30.5219 H   0  0  0  0  0
   -7.4543   16.5083   30.4455 H   0  0  0  0  0
   -9.1166   15.8310   30.3782 H   0  0  0  0  0
  -11.6559   14.1693   34.2315 H   0  0  0  0  0
  -12.7401   16.1189   32.1795 H   0  0  0  0  0
  -13.1248   15.9677   33.9276 H   0  0  0  0  0
  -15.1385   15.2864   33.0604 H   0  0  0  0  0
  -14.3039   13.6961   33.0891 H   0  0  0  0  0
  -13.6558   14.1838   30.5974 H   0  0  0  0  0
  -14.8738   15.5024   30.6636 H   0  0  0  0  0
  -15.8452   13.4277   29.7444 H   0  0  0  0  0
  -16.6099   13.8662   31.3095 H   0  0  0  0  0
  -15.3918   12.5476   31.2433 H   0  0  0  0  0
  -11.6291   12.8797   30.3141 H   0  0  0  0  0
  -11.4894   14.5600   30.7103 H   0  0  0  0  0
  3  2  1  0  0  0
  2  5  1  0  0  0
  2  1  1  0  0  0
  1 14  1  0  0  0
  1 13  1  0  0  0
  1 12  1  0  0  0
  5  6  1  0  0  0
  6  7  1  0  0  0
  7  8  1  0  0  0
  8 15  1  0  0  0
  8  9  1  0  0  0
  9 10  1  0  0  0
  9 11  1  0  0  0
 11 19  1  0  0  0
 11 18  1  0  0  0
 10 17  1  0  0  0
 10 16  1  0  0  0
  3  4  2  0  0  0
 22 21  1  0  0  0
 21 24  1  0  0  0
 21 20  1  0  0  0
 20 27  1  0  0  0
 24 25  1  0  0  0
 24 26  1  0  0  0
 22 23  2  0  0  0
 30 29  1  0  0  0
 29 32  1  0  0  0
 29 28  1  0  0  0
 28 36  1  0  0  0
 32 33  1  0  0  0
 33 35  1  0  0  0
 33 34  1  0  0  0
 30 31  2  0  0  0
 39 38  1  0  0  0
 38 41  1  0  0  0
 38 37  1  0  0  0
 37 48  1  0  0  0
 41 42  1  0  0  0
 42 44  4  0  0  0
 42 43  4  0  0  0
 43 45  4  0  0  0
 45 47  4  0  0  0
 46 47  4  0  0  0
 44 46  4  0  0  0
 39 40  2  0  0  0
 51 50  1  0  0  0
 50 53  1  0  0  0
 50 49  1  0  0  0
 49 58  1  0  0  0
 53 54  1  0  0  0
 54 55  1  0  0  0
 55 56  2  0  0  0
 55 57  1  0  0  0
 51 52  2  0  0  0
 61 60  1  0  0  0
 60 63  1  0  0  0
 60 59  1  0  0  0
 59 64  1  0  0  0
 61 62  2  0  0  0
 65 73  1  0  0  0
 65 66  1  0  0  0
 66 69  1  0  0  0
 66 67  1  0  0  0
 67 68  2  0  0  0
 69 70  1  0  0  0
 70 71  1  0  0  0
 71 72  1  0  0  0
 20  3  1  0  0  0
 28 22  1  0  0  0
 37 30  1  0  0  0
 49 39  1  0  0  0
 59 51  1  0  0  0
 61 65  1  0  0  0
 67 74  1  0  0  0
  2 75  1  0  0  0
  5 76  1  0  0  0
  5 77  1  0  0  0
  6 78  1  0  0  0
  6 79  1  0  0  0
  7 80  1  0  0  0
  7 81  1  0  0  0
 21 82  1  0  0  0
 24 83  1  0  0  0
 25 84  1  0  0  0
 25 85  1  0  0  0
 25 86  1  0  0  0
 26 87  1  0  0  0
 26 88  1  0  0  0
 26 89  1  0  0  0
 29 90  1  0  0  0
 32 91  1  0  0  0
 32 92  1  0  0  0
 33 93  1  0  0  0
 34 94  1  0  0  0
 34 95  1  0  0  0
 34 96  1  0  0  0
 35 97  1  0  0  0
 35 98  1  0  0  0
 35 99  1  0  0  0
 38100  1  0  0  0
 41101  1  0  0  0
 41102  1  0  0  0
 43103  1  0  0  0
 44104  1  0  0  0
 45105  1  0  0  0
 46106  1  0  0  0
 47107  1  0  0  0
 50108  1  0  0  0
 53109  1  0  0  0
 53110  1  0  0  0
 54111  1  0  0  0
 54112  1  0  0  0
 60113  1  0  0  0
 63114  1  0  0  0
 63115  1  0  0  0
 63116  1  0  0  0
 66117  1  0  0  0
 69118  1  0  0  0
 69119  1  0  0  0
 70120  1  0  0  0
 70121  1  0  0  0
 71122  1  0  0  0
 71123  1  0  0  0
 72124  1  0  0  0
 72125  1  0  0  0
 72126  1  0  0  0
 74127  1  0  0  0
 74128  1  0  0  0
M  END
$$$$
