3jdw_ligand
  -I-interpret- 

 22 21  0  0  0  0  0  0  0  0999 V2000
   45.3460   72.9490   15.1450 N   0  3  0  0  0
   44.3150   72.5380   16.1400 C   0  0  0  0  0
   44.6570   71.1800   16.7980 C   0  0  0  0  0
   46.1290   70.8250   17.0110 C   0  0  0  0  0
   46.2630   69.2890   17.1560 C   0  0  0  0  0
   47.6880   68.7310   17.0320 N   0  3  0  0  0
   44.0600   73.6230   17.1850 C   0  0  0  0  0
   43.1520   73.4310   18.0170 O   0  0  0  0  0
   44.7150   74.6930   17.1210 O   0  5  0  0  0
   46.3050   72.7920   15.4810 H   0  0  0  0  0
   45.2060   73.9800   15.1680 H   0  0  0  0  0
   48.1880   69.0840   17.8760 H   0  0  0  0  0
   48.2240   69.1750   16.2600 H   0  0  0  0  0
   47.7360   67.7000   17.0200 H   0  0  0  0  0
   45.1490   72.5620   14.2020 H   0  0  0  0  0
   43.3745   72.3988   15.5867 H   0  0  0  0  0
   44.2211   70.3930   16.1650 H   0  0  0  0  0
   44.1730   71.1662   17.7857 H   0  0  0  0  0
   46.4978   71.3149   17.9242 H   0  0  0  0  0
   46.7191   71.1665   16.1478 H   0  0  0  0  0
   45.6473   68.8206   16.3740 H   0  0  0  0  0
   45.8748   69.0077   18.1460 H   0  0  0  0  0
  1 15  1  0  0  0
  1 11  1  0  0  0
  1 10  1  0  0  0
  1  2  1  0  0  0
  2  7  1  0  0  0
  2  3  1  0  0  0
  3  4  1  0  0  0
  4  5  1  0  0  0
  5  6  1  0  0  0
  6 14  1  0  0  0
  6 13  1  0  0  0
  6 12  1  0  0  0
  7  9  1  0  0  0
  7  8  2  0  0  0
  2 16  1  0  0  0
  3 17  1  0  0  0
  3 18  1  0  0  0
  4 19  1  0  0  0
  4 20  1  0  0  0
  5 21  1  0  0  0
  5 22  1  0  0  0
M  END
$$$$
