### 
### Created by X-TOOL on Tue Oct 25 02:13:25 2005
### 

@<TRIPOS>MOLECULE
3jdw_ligand
   22    21     1     0     0
SMALL
GAST_HUCK


@<TRIPOS>ATOM
      1 N          45.3460   72.9490   15.1450 N.4       1 SUB1        0.238
      2 CA         44.3150   72.5380   16.1400 C.3       1 SUB1        0.015
      3 CB         44.6570   71.1800   16.7980 C.3       1 SUB1        0.006
      4 CG         46.1290   70.8250   17.0110 C.3       1 SUB1       -0.005
      5 CD         46.2630   69.2890   17.1560 C.3       1 SUB1       -0.035
      6 NE         47.6880   68.7310   17.0320 N.4       1 SUB1        0.219
      7 C          44.0600   73.6230   17.1850 C.2       1 SUB1        0.076
      8 O          43.1520   73.4310   18.0170 O.co2     1 SUB1       -0.561
      9 OXT        44.7150   74.6930   17.1210 O.co2     1 SUB1       -0.561
     10 H11        46.3050   72.7920   15.4810 H         1 SUB1        0.202
     11 H12        45.2060   73.9800   15.1680 H         1 SUB1        0.202
     12 H61        48.1880   69.0840   17.8760 H         1 SUB1        0.199
     13 H62        48.2240   69.1750   16.2600 H         1 SUB1        0.199
     14 H63        47.7360   67.7000   17.0200 H         1 SUB1        0.199
     15 H13        45.1490   72.5620   14.2020 H         1 SUB1        0.202
     16 H21        43.3745   72.3988   15.5867 H         1 SUB1        0.107
     17 H31        44.2211   70.3930   16.1650 H         1 SUB1        0.036
     18 H32        44.1730   71.1662   17.7857 H         1 SUB1        0.036
     19 H41        46.4978   71.3149   17.9242 H         1 SUB1        0.032
     20 H42        46.7191   71.1665   16.1478 H         1 SUB1        0.032
     21 H51        45.6473   68.8206   16.3740 H         1 SUB1        0.081
     22 H52        45.8748   69.0077   18.1460 H         1 SUB1        0.081
@<TRIPOS>BOND
     1    1   15 1  
     2    1   11 1  
     3    1   10 1  
     4    1    2 1  
     5    2    7 1  
     6    2    3 1  
     7    3    4 1  
     8    4    5 1  
     9    5    6 1  
    10    6   14 1  
    11    6   13 1  
    12    6   12 1  
    13    7    9 2  
    14    7    8 2  
    15    2   16 1  
    16    3   17 1  
    17    3   18 1  
    18    4   19 1  
    19    4   20 1  
    20    5   21 1  
    21    5   22 1  
@<TRIPOS>SUBSTRUCTURE
     1 SUB1        1 GROUP

