1w2g_ligand
  -I-interpret- 

 31 32  0  0  0  0  0  0  0  0999 V2000
   32.3410   25.9330   88.8560 O   0  0  0  0  0
   31.3360   26.4800   88.0450 C   0  0  0  0  0
   30.4990   25.3810   87.2800 C   0  0  0  0  0
   31.0250   24.7760   86.0910 O   0  0  0  0  0
   29.9540   24.0800   87.9600 C   0  0  0  0  0
   28.6030   23.5750   87.5180 O   0  0  0  0  0
   31.2300   23.2260   87.7370 C   0  0  0  0  0
   31.4830   23.4560   86.2720 C   0  0  0  0  0
   32.8910   23.4430   85.7840 N   0  0  0  0  0
   33.2270   22.7100   84.6780 C   0  0  0  0  0
   32.3140   22.0590   84.0860 O   0  0  0  0  0
   34.4820   22.6590   84.2020 N   0  0  0  0  0
   35.4540   23.3400   84.8190 C   0  0  0  0  0
   36.6730   23.2750   84.3390 O   0  0  0  0  0
   35.1570   24.1140   85.9680 C   0  0  0  0  0
   36.2310   24.9020   86.6990 C   0  0  0  0  0
   33.8320   24.1490   86.4420 C   0  0  0  0  0
   32.8118   26.6341   89.2911 H   0  0  0  0  0
   31.8053   27.1432   87.3035 H   0  0  0  0  0
   30.6524   27.0640   88.6787 H   0  0  0  0  0
   29.6102   25.9516   86.9727 H   0  0  0  0  0
   29.8405   24.2591   89.0394 H   0  0  0  0  0
   28.3874   22.7862   88.0014 H   0  0  0  0  0
   31.0464   22.1630   87.9523 H   0  0  0  0  0
   32.0682   23.5853   88.3521 H   0  0  0  0  0
   30.8993   22.7329   85.6835 H   0  0  0  0  0
   34.6889   22.1140   83.3895 H   0  0  0  0  0
   35.7822   25.4259   87.5558 H   0  0  0  0  0
   36.6776   25.6367   86.0130 H   0  0  0  0  0
   37.0107   24.2138   87.0576 H   0  0  0  0  0
   33.5724   24.7347   87.3226 H   0  0  0  0  0
  1  2  1  0  0  0
  2  3  1  0  0  0
  3  4  1  0  0  0
  3  5  1  0  0  0
  4  8  1  0  0  0
  5  6  1  0  0  0
  5  7  1  0  0  0
  7  8  1  0  0  0
  8  9  1  0  0  0
  9 10  1  0  0  0
  9 17  1  0  0  0
 10 11  2  0  0  0
 10 12  1  0  0  0
 12 13  1  0  0  0
 13 14  2  0  0  0
 13 15  1  0  0  0
 15 16  1  0  0  0
 15 17  2  0  0  0
  1 18  1  0  0  0
  2 19  1  0  0  0
  2 20  1  0  0  0
  3 21  1  0  0  0
  5 22  1  0  0  0
  6 23  1  0  0  0
  7 24  1  0  0  0
  7 25  1  0  0  0
  8 26  1  0  0  0
 12 27  1  0  0  0
 16 28  1  0  0  0
 16 29  1  0  0  0
 16 30  1  0  0  0
 17 31  1  0  0  0
M  END
$$$$
