### 
### Created by X-TOOL on Tue Oct 25 00:59:47 2005
### 

@<TRIPOS>MOLECULE
1w2g_ligand
   31    32     1     0     0
SMALL
GAST_HUCK


@<TRIPOS>ATOM
      1 O5         32.3410   25.9330   88.8560 O.3       1 SUB1       -0.392
      2 C5         31.3360   26.4800   88.0450 C.3       1 SUB1        0.073
      3 C4         30.4990   25.3810   87.2800 C.3       1 SUB1        0.111
      4 O4         31.0250   24.7760   86.0910 O.3       1 SUB1       -0.340
      5 C3         29.9540   24.0800   87.9600 C.3       1 SUB1        0.089
      6 O3         28.6030   23.5750   87.5180 O.3       1 SUB1       -0.389
      7 C2         31.2300   23.2260   87.7370 C.3       1 SUB1        0.031
      8 C1         31.4830   23.4560   86.2720 C.3       1 SUB1        0.176
      9 N1         32.8910   23.4430   85.7840 N.am      1 SUB1       -0.174
     10 C2         33.2270   22.7100   84.6780 C.2       1 SUB1        0.326
     11 O2         32.3140   22.0590   84.0860 O.2       1 SUB1       -0.384
     12 N3         34.4820   22.6590   84.2020 N.am      1 SUB1       -0.186
     13 C4         35.4540   23.3400   84.8190 C.2       1 SUB1        0.193
     14 O4         36.6730   23.2750   84.3390 O.2       1 SUB1       -0.408
     15 C5         35.1570   24.1140   85.9680 C.2       1 SUB1        0.023
     16 C5M        36.2310   24.9020   86.6990 C.3       1 SUB1       -0.044
     17 C6         33.8320   24.1490   86.4420 C.2       1 SUB1        0.052
     18 H11        32.8118   26.6341   89.2911 H         1 SUB1        0.209
     19 H21        31.8053   27.1432   87.3035 H         1 SUB1        0.058
     20 H22        30.6524   27.0640   88.6787 H         1 SUB1        0.058
     21 H31        29.6102   25.9516   86.9727 H         1 SUB1        0.065
     22 H51        29.8405   24.2591   89.0394 H         1 SUB1        0.062
     23 H61        28.3874   22.7862   88.0014 H         1 SUB1        0.210
     24 H71        31.0464   22.1630   87.9523 H         1 SUB1        0.034
     25 H72        32.0682   23.5853   88.3521 H         1 SUB1        0.034
     26 H81        30.8993   22.7329   85.6835 H         1 SUB1        0.096
     27 H121       34.6889   22.1140   83.3895 H         1 SUB1        0.226
     28 H161       35.7822   25.4259   87.5558 H         1 SUB1        0.030
     29 H162       36.6776   25.6367   86.0130 H         1 SUB1        0.030
     30 H163       37.0107   24.2138   87.0576 H         1 SUB1        0.030
     31 H171       33.5724   24.7347   87.3226 H         1 SUB1        0.101
@<TRIPOS>BOND
     1    1    2 1  
     2    2    3 1  
     3    3    4 1  
     4    3    5 1  
     5    4    8 1  
     6    5    6 1  
     7    5    7 1  
     8    7    8 1  
     9    8    9 1  
    10    9   10 am 
    11    9   17 1  
    12   10   11 2  
    13   10   12 am 
    14   12   13 am 
    15   13   14 2  
    16   13   15 1  
    17   15   16 1  
    18   15   17 2  
    19    1   18 1  
    20    2   19 1  
    21    2   20 1  
    22    3   21 1  
    23    5   22 1  
    24    6   23 1  
    25    7   24 1  
    26    7   25 1  
    27    8   26 1  
    28   12   27 1  
    29   16   28 1  
    30   16   29 1  
    31   16   30 1  
    32   17   31 1  
@<TRIPOS>SUBSTRUCTURE
     1 SUB1        1 GROUP

