1yej_ligand
  -I-interpret- 

 48 48  0  0  0  0  0  0  0  0999 V2000
   12.4287   39.4389   60.6141 H   0  0  0  0  0
   10.2524   40.5902   60.8675 H   0  0  0  0  0
    8.6643   37.0985   62.8400 H   0  0  0  0  0
   10.8753   35.9268   62.5859 H   0  0  0  0  0
   15.1473   35.5497   61.6186 H   0  0  0  0  0
   16.3176   36.5866   62.5027 H   0  0  0  0  0
   16.3729   38.0975   60.5495 H   0  0  0  0  0
   15.3228   36.9342   59.6716 H   0  0  0  0  0
   17.0449   35.1400   60.5762 H   0  0  0  0  0
   18.1326   36.5571   60.7649 H   0  0  0  0  0
   11.7240   37.6520   61.5920 C   0  0  0  0  0
   11.5950   38.9440   61.0990 C   0  0  0  0  0
   10.3830   39.5810   61.2410 C   0  0  0  0  0
    9.3230   38.9240   61.8670 C   0  0  0  0  0
    9.4940   37.6010   62.3560 C   0  0  0  0  0
   10.7220   36.9360   62.2210 C   0  0  0  0  0
   14.2130   37.5270   62.3610 P   0  0  0  0  0
   12.9460   37.0450   61.4460 O   0  0  0  0  0
   14.4460   38.9260   62.1110 O   0  0  0  0  0
   13.9650   37.0920   63.7470 O   0  5  0  0  0
   15.5100   36.5790   61.7560 C   0  0  0  0  0
   16.0650   37.0440   60.4760 C   0  0  0  0  0
   17.2700   36.1540   60.2140 C   0  0  0  0  0
   17.6240   36.0770   58.7520 C   0  0  0  0  0
   17.3290   34.9030   58.0520 N   0  0  0  0  0
   18.1670   37.0950   58.2460 O   0  0  0  0  0
   17.5900   34.6900   56.7120 C   0  0  0  0  0
   16.5890   33.7390   56.0350 C   0  0  0  0  0
   17.2310   32.9210   54.8670 C   0  0  0  0  0
   17.0470   31.3850   54.9810 C   0  0  0  0  0
   16.7600   30.6380   53.6670 C   0  0  0  0  0
   15.7740   29.4520   53.7680 C   0  0  0  0  0
   15.6460   28.8790   54.7890 O   0  0  0  0  0
   15.0990   29.0450   52.8370 O   0  5  0  0  0
    8.0130   39.6060   62.0260 N   0  0  0  0  0
    7.8500   40.7940   61.7110 O   0  0  0  0  0
    7.0620   38.9830   62.4940 O   0  0  0  0  0
   16.8952   34.1595   58.5610 H   0  0  0  0  0
   18.5977   34.2591   56.6179 H   0  0  0  0  0
   17.5555   35.6589   56.1924 H   0  0  0  0  0
   15.7557   34.3334   55.6321 H   0  0  0  0  0
   16.2065   33.0353   56.7890 H   0  0  0  0  0
   18.3093   33.1374   54.8480 H   0  0  0  0  0
   16.7737   33.2527   53.9232 H   0  0  0  0  0
   16.2061   31.1971   55.6648 H   0  0  0  0  0
   17.9694   30.9670   55.4105 H   0  0  0  0  0
   17.7154   30.2506   53.2836 H   0  0  0  0  0
   16.3442   31.3623   52.9511 H   0  0  0  0  0
 12  1  1  0  0  0
 13  2  1  0  0  0
 15  3  1  0  0  0
 11 18  1  0  0  0
 11 16  4  0  0  0
 12 11  4  0  0  0
 13 12  4  0  0  0
 14 13  4  0  0  0
 14 35  1  0  0  0
 14 15  4  0  0  0
 15 16  4  0  0  0
 35 37  2  0  0  0
 35 36  2  0  0  0
 18 17  1  0  0  0
 17 19  2  0  0  0
 17 20  1  0  0  0
 17 21  1  0  0  0
 21 22  1  0  0  0
 22 23  1  0  0  0
 23 24  1  0  0  0
 24 26  2  0  0  0
 24 25  1  0  0  0
 25 27  1  0  0  0
 27 28  1  0  0  0
 28 29  1  0  0  0
 29 30  1  0  0  0
 30 31  1  0  0  0
 31 32  1  0  0  0
 32 34  1  0  0  0
 32 33  2  0  0  0
 16  4  1  0  0  0
 21  5  1  0  0  0
 21  6  1  0  0  0
 22  7  1  0  0  0
 22  8  1  0  0  0
 23  9  1  0  0  0
 23 10  1  0  0  0
 25 38  1  0  0  0
 27 39  1  0  0  0
 27 40  1  0  0  0
 28 41  1  0  0  0
 28 42  1  0  0  0
 29 43  1  0  0  0
 29 44  1  0  0  0
 30 45  1  0  0  0
 30 46  1  0  0  0
 31 47  1  0  0  0
 31 48  1  0  0  0
M  END
$$$$
