### 
### Created by X-TOOL on Mon Oct 24 22:51:09 2005
### 

@<TRIPOS>MOLECULE
1yej_ligand
   48    48     1     0     0
SMALL
GAST_HUCK


@<TRIPOS>ATOM
      1 H121       12.4287   39.4389   60.6141 H         1 SUB1        0.060
      2 H131       10.2524   40.5902   60.8675 H         1 SUB1        0.067
      3 H151        8.6643   37.0985   62.8400 H         1 SUB1        0.067
      4 H161       10.8753   35.9268   62.5859 H         1 SUB1        0.060
      5 H211       15.1473   35.5497   61.6186 H         1 SUB1        0.069
      6 H212       16.3176   36.5866   62.5027 H         1 SUB1        0.069
      7 H221       16.3729   38.0975   60.5495 H         1 SUB1        0.032
      8 H222       15.3228   36.9342   59.6716 H         1 SUB1        0.032
      9 H231       17.0449   35.1400   60.5762 H         1 SUB1        0.050
     10 H232       18.1326   36.5571   60.7649 H         1 SUB1        0.050
     11 C1         11.7240   37.6520   61.5920 C.ar      1 SUB1        0.181
     12 C2         11.5950   38.9440   61.0990 C.ar      1 SUB1       -0.010
     13 C3         10.3830   39.5810   61.2410 C.ar      1 SUB1       -0.028
     14 C4          9.3230   38.9240   61.8670 C.ar      1 SUB1        0.130
     15 C5          9.4940   37.6010   62.3560 C.ar      1 SUB1       -0.028
     16 C6         10.7220   36.9360   62.2210 C.ar      1 SUB1       -0.010
     17 P1         14.2130   37.5270   62.3610 P.3       1 SUB1        0.367
     18 O1         12.9460   37.0450   61.4460 O.3       1 SUB1       -0.104
     19 O2         14.4460   38.9260   62.1110 O.co2     1 SUB1       -0.391
     20 O3         13.9650   37.0920   63.7470 O.co2     1 SUB1       -0.391
     21 C8         15.5100   36.5790   61.7560 C.3       1 SUB1        0.116
     22 C9         16.0650   37.0440   60.4760 C.3       1 SUB1       -0.001
     23 C10        17.2700   36.1540   60.2140 C.3       1 SUB1        0.040
     24 C11        17.6240   36.0770   58.7520 C.2       1 SUB1        0.176
     25 N2         17.3290   34.9030   58.0520 N.am      1 SUB1       -0.287
     26 O6         18.1670   37.0950   58.2460 O.2       1 SUB1       -0.397
     27 C12        17.5900   34.6900   56.7120 C.3       1 SUB1        0.031
     28 C13        16.5890   33.7390   56.0350 C.3       1 SUB1       -0.032
     29 C14        17.2310   32.9210   54.8670 C.3       1 SUB1       -0.048
     30 C15        17.0470   31.3850   54.9810 C.3       1 SUB1       -0.041
     31 C16        16.7600   30.6380   53.6670 C.3       1 SUB1       -0.014
     32 C17        15.7740   29.4520   53.7680 C.2       1 SUB1        0.028
     33 O7         15.6460   28.8790   54.7890 O.co2     1 SUB1       -0.567
     34 O8         15.0990   29.0450   52.8370 O.co2     1 SUB1       -0.567
     35 N1          8.0130   39.6060   62.0260 N.2       1 SUB1        0.037
     36 O4          7.8500   40.7940   61.7110 O.2       1 SUB1       -0.153
     37 O5          7.0620   38.9830   62.4940 O.2       1 SUB1       -0.153
     38 H251       16.8952   34.1595   58.5610 H         1 SUB1        0.185
     39 H271       18.5977   34.2591   56.6179 H         1 SUB1        0.052
     40 H272       17.5555   35.6589   56.1924 H         1 SUB1        0.052
     41 H281       15.7557   34.3334   55.6321 H         1 SUB1        0.029
     42 H282       16.2065   33.0353   56.7890 H         1 SUB1        0.029
     43 H291       18.3093   33.1374   54.8480 H         1 SUB1        0.027
     44 H292       16.7737   33.2527   53.9232 H         1 SUB1        0.027
     45 H301       16.2061   31.1971   55.6648 H         1 SUB1        0.030
     46 H302       17.9694   30.9670   55.4105 H         1 SUB1        0.030
     47 H311       17.7154   30.2506   53.2836 H         1 SUB1        0.048
     48 H312       16.3442   31.3623   52.9511 H         1 SUB1        0.048
@<TRIPOS>BOND
     1   12    1 1  
     2   13    2 1  
     3   15    3 1  
     4   11   18 1  
     5   11   16 ar 
     6   12   11 ar 
     7   13   12 ar 
     8   14   13 ar 
     9   14   35 1  
    10   14   15 ar 
    11   15   16 ar 
    12   35   37 2  
    13   35   36 2  
    14   18   17 1  
    15   17   19 2  
    16   17   20 2  
    17   17   21 1  
    18   21   22 1  
    19   22   23 1  
    20   23   24 1  
    21   24   26 2  
    22   24   25 am 
    23   25   27 1  
    24   27   28 1  
    25   28   29 1  
    26   29   30 1  
    27   30   31 1  
    28   31   32 1  
    29   32   34 2  
    30   32   33 2  
    31   16    4 1  
    32   21    5 1  
    33   21    6 1  
    34   22    7 1  
    35   22    8 1  
    36   23    9 1  
    37   23   10 1  
    38   25   38 1  
    39   27   39 1  
    40   27   40 1  
    41   28   41 1  
    42   28   42 1  
    43   29   43 1  
    44   29   44 1  
    45   30   45 1  
    46   30   46 1  
    47   31   47 1  
    48   31   48 1  
@<TRIPOS>SUBSTRUCTURE
     1 SUB1        1 GROUP

