### 
### Created by X-TOOL on Tue Oct 25 02:18:59 2005
### 

@<TRIPOS>MOLECULE
1j14_ligand
   18    18     1     0     0
SMALL
GAST_HUCK


@<TRIPOS>ATOM
      1 H71         7.5919   49.3702   53.6393 H         1 SUB1        0.066
      2 H81         7.8574   47.1032   54.6298 H         1 SUB1        0.062
      3 H91         8.1170   46.8460   57.0955 H         1 SUB1        0.062
      4 H101        8.1216   48.8614   58.5599 H         1 SUB1        0.062
      5 H111        7.8866   51.1248   57.5621 H         1 SUB1        0.066
      6 C1          7.7230   50.4040   55.5330 C.ar      1 SUB1        0.186
      7 C2          7.7130   49.2610   54.7110 C.ar      1 SUB1       -0.007
      8 C3          7.8590   47.9780   55.2700 C.ar      1 SUB1       -0.057
      9 C4          8.0070   47.8330   56.6610 C.ar      1 SUB1       -0.062
     10 C5          8.0120   48.9710   57.4870 C.ar      1 SUB1       -0.057
     11 C6          7.8750   50.2500   56.9220 C.ar      1 SUB1       -0.007
     12 C           7.5690   51.7870   54.9280 C.cat     1 SUB1        0.316
     13 N1          7.2160   52.7920   55.6900 N.pl3     1 SUB1       -0.200
     14 N2          7.8020   51.9530   53.6580 N.pl3     1 SUB1       -0.200
     15 H131        7.1099   53.7330   55.2849 H         1 SUB1        0.192
     16 H132        7.0445   52.6414   56.6944 H         1 SUB1        0.192
     17 H141        8.0786   51.1496   53.0758 H         1 SUB1        0.192
     18 H142        7.7098   52.8878   53.2354 H         1 SUB1        0.192
@<TRIPOS>BOND
     1    7    1 1  
     2    8    2 1  
     3    9    3 1  
     4   10    4 1  
     5    6   12 1  
     6    6   11 ar 
     7    7    6 ar 
     8    8    7 ar 
     9    9    8 ar 
    10    9   10 ar 
    11   10   11 ar 
    12   12   14 1  
    13   12   13 1  
    14   11    5 1  
    15   13   15 1  
    16   13   16 1  
    17   14   17 1  
    18   14   18 1  
@<TRIPOS>SUBSTRUCTURE
     1 SUB1        1 GROUP

