### 
### Created by X-TOOL on Mon Oct 24 22:35:08 2005
### 

@<TRIPOS>MOLECULE
1fh9_ligand
   39    40     1     0     0
SMALL
GAST_HUCK


@<TRIPOS>ATOM
      1 C1         17.0240   65.6540   38.7720 C.3       1 SUB1        0.188
      2 C2         16.7500   64.6450   39.8890 C.3       1 SUB1        0.134
      3 C3         15.2930   64.1800   39.8510 C.3       1 SUB1        0.114
      4 C4         14.3450   65.3820   39.8410 C.3       1 SUB1        0.107
      5 C5         14.7300   66.3480   38.7160 C.3       1 SUB1        0.079
      6 O2         17.6140   63.5280   39.7340 O.3       1 SUB1       -0.384
      7 O3         15.0250   63.3770   40.9910 O.3       1 SUB1       -0.386
      8 O4         13.0080   64.9330   39.6550 O.3       1 SUB1       -0.387
      9 O5         16.1090   66.7560   38.8640 O.3       1 SUB1       -0.346
     10 C1         20.2840   68.0920   35.6370 C.2       1 SUB1        0.128
     11 C2         20.1080   68.9450   36.9630 C.3       1 SUB1        0.160
     12 C3         19.7760   67.9940   38.1890 C.3       1 SUB1        0.125
     13 C4         18.7680   66.9010   37.7820 C.3       1 SUB1        0.112
     14 C5         19.4320   65.9060   36.7850 C.3       1 SUB1       -0.007
     15 N1         19.9320   66.7240   35.6370 N.4       1 SUB1        0.440
     16 O22        20.8960   67.6930   33.5380 O.3       1 SUB1       -0.226
     17 N2         20.7740   68.6060   34.5160 N.2       1 SUB1       -0.087
     18 O2         21.2120   69.7450   37.2520 O.3       1 SUB1       -0.370
     19 O3         19.2280   68.7490   39.2790 O.3       1 SUB1       -0.384
     20 O4         18.3660   66.1610   38.9280 O.3       1 SUB1       -0.340
     21 H11        16.9173   65.1627   37.7936 H         1 SUB1        0.094
     22 H21        16.9468   65.1228   40.8600 H         1 SUB1        0.067
     23 H31        15.1289   63.5853   38.9403 H         1 SUB1        0.065
     24 H41        14.4188   65.9064   40.8051 H         1 SUB1        0.064
     25 H51        14.0811   67.2351   38.7598 H         1 SUB1        0.059
     26 H52        14.6008   65.8467   37.7454 H         1 SUB1        0.059
     27 H61        18.5171   63.8187   39.7815 H         1 SUB1        0.210
     28 H71        14.1203   63.0880   40.9678 H         1 SUB1        0.210
     29 H81        12.7699   64.3482   40.3647 H         1 SUB1        0.210
     30 H111       19.2485   69.6145   36.8114 H         1 SUB1        0.085
     31 H121       20.7079   67.5128   38.5207 H         1 SUB1        0.067
     32 H131       17.8904   67.3697   37.3128 H         1 SUB1        0.065
     33 H141       18.6934   65.1703   36.4339 H         1 SUB1        0.057
     34 H142       20.2684   65.3825   37.2711 H         1 SUB1        0.057
     35 H151       20.7626   66.2459   35.3246 H         1 SUB1        0.119
     36 H152       19.2140   66.6444   34.9341 H         1 SUB1        0.119
     37 H161       21.2492   68.1089   32.7603 H         1 SUB1        0.301
     38 H181       21.0495   70.2298   38.0526 H         1 SUB1        0.214
     39 H191       19.0357   68.1643   40.0027 H         1 SUB1        0.210
@<TRIPOS>BOND
     1    1    9 1  
     2    1    2 1  
     3    2    6 1  
     4    2    3 1  
     5    3    7 1  
     6    3    4 1  
     7    4    8 1  
     8    5    4 1  
     9    9    5 1  
    10   10   17 2  
    11   15   10 1  
    12   11   10 1  
    13   11   18 1  
    14   12   11 1  
    15   12   19 1  
    16   13   12 1  
    17   20   13 1  
    18   13   14 1  
    19   14   15 1  
    20   17   16 1  
    21   20    1 1  
    22    1   21 1  
    23    2   22 1  
    24    3   23 1  
    25    4   24 1  
    26    5   25 1  
    27    5   26 1  
    28    6   27 1  
    29    7   28 1  
    30    8   29 1  
    31   11   30 1  
    32   12   31 1  
    33   13   32 1  
    34   14   33 1  
    35   14   34 1  
    36   15   35 1  
    37   15   36 1  
    38   16   37 1  
    39   18   38 1  
    40   19   39 1  
@<TRIPOS>SUBSTRUCTURE
     1 SUB1        1 GROUP

