### 
### Created by X-TOOL on Tue Oct 25 01:41:27 2005
### 

@<TRIPOS>MOLECULE
1yfz_ligand
   34    36     1     0     0
SMALL
GAST_HUCK


@<TRIPOS>ATOM
      1 P          42.2720   35.8040   66.6010 P.3       1 SUB1        0.205
      2 O1P        41.0280   36.6050   66.4070 O.co2     1 SUB1       -0.535
      3 O2P        43.3340   36.6840   67.1810 O.co2     1 SUB1       -0.535
      4 O3P        42.0260   34.5820   67.5020 O.co2     1 SUB1       -0.535
      5 O5         42.8330   35.1990   65.2090 O.3       1 SUB1       -0.320
      6 C5         42.8680   36.1300   64.0900 C.3       1 SUB1        0.094
      7 C4         43.3950   35.5960   62.7700 C.3       1 SUB1        0.118
      8 O4         43.8470   36.8230   62.0610 O.3       1 SUB1       -0.336
      9 C3         44.6330   34.6540   62.7660 C.3       1 SUB1        0.115
     10 O3         44.3640   33.3810   62.1790 O.3       1 SUB1       -0.386
     11 C2         45.7210   35.3900   62.0070 C.3       1 SUB1        0.139
     12 O2         46.5460   34.5480   61.2290 O.3       1 SUB1       -0.384
     13 C1         44.8940   36.3870   61.2120 C.3       1 SUB1        0.200
     14 N9         45.7140   37.5800   60.7710 N.pl3     1 SUB1       -0.205
     15 C8         46.0520   37.9690   59.4990 C.2       1 SUB1        0.100
     16 N7         46.7730   39.0490   59.4640 N.2       1 SUB1       -0.315
     17 C5         46.9440   39.4260   60.7630 C.2       1 SUB1        0.104
     18 C6         47.6490   40.5440   61.3390 C.2       1 SUB1        0.220
     19 O6         48.2740   41.4230   60.7380 O.2       1 SUB1       -0.407
     20 N1         47.5880   40.5840   62.7740 N.am      1 SUB1       -0.204
     21 C2         46.9020   39.6250   63.5300 C.2       1 SUB1        0.127
     22 N3         46.2400   38.5750   62.9670 N.2       1 SUB1       -0.268
     23 C4         46.2940   38.5340   61.6150 C.2       1 SUB1        0.135
     24 H61        43.5038   36.9785   64.3830 H         1 SUB1        0.064
     25 H62        41.8405   36.4835   63.9192 H         1 SUB1        0.064
     26 H71        42.5735   35.0947   62.2373 H         1 SUB1        0.065
     27 H91        44.9601   34.4881   63.8030 H         1 SUB1        0.065
     28 H101       45.1511   32.8496   62.2033 H         1 SUB1        0.210
     29 H111       46.3736   35.9263   62.7116 H         1 SUB1        0.068
     30 H121       46.0148   34.0910   60.5875 H         1 SUB1        0.210
     31 H131       44.4764   35.8914   60.3232 H         1 SUB1        0.100
     32 H151       45.7457   37.4255   58.6064 H         1 SUB1        0.121
     33 H201       48.0548   41.3275   63.2529 H         1 SUB1        0.256
     34 H211       46.8974   39.7225   64.6146 H         1 SUB1        0.149
@<TRIPOS>BOND
     1    1    2 2  
     2    1    3 2  
     3    1    4 2  
     4    1    5 1  
     5    5    6 1  
     6    6    7 1  
     7    7    8 1  
     8    7    9 1  
     9    8   13 1  
    10    9   10 1  
    11    9   11 1  
    12   11   12 1  
    13   11   13 1  
    14   13   14 1  
    15   14   15 1  
    16   14   23 1  
    17   15   16 2  
    18   16   17 1  
    19   17   18 1  
    20   17   23 2  
    21   18   19 2  
    22   18   20 am 
    23   20   21 am 
    24   21   22 2  
    25   22   23 1  
    26    6   24 1  
    27    6   25 1  
    28    7   26 1  
    29    9   27 1  
    30   10   28 1  
    31   11   29 1  
    32   12   30 1  
    33   13   31 1  
    34   15   32 1  
    35   20   33 1  
    36   21   34 1  
@<TRIPOS>SUBSTRUCTURE
     1 SUB1        1 GROUP

