### 
### Created by X-TOOL on Tue Oct 25 02:32:31 2005
### 

@<TRIPOS>MOLECULE
1uvt_ligand
   49    51     1     0     0
SMALL
GAST_HUCK


@<TRIPOS>ATOM
      1 N1         45.6890   56.1380   40.4510 N.ar      1 SUB1       -0.290
      2 C2         47.0040   55.6120   40.5200 C.ar      1 SUB1        0.023
      3 C3         48.0910   56.4960   40.4990 C.ar      1 SUB1        0.017
      4 C4         47.9000   57.8890   40.4890 C.ar      1 SUB1        0.029
      5 C5         46.6050   58.4010   40.3980 C.ar      1 SUB1        0.017
      6 C6         45.5020   57.5480   40.4580 C.ar      1 SUB1        0.023
      7 NA1        49.0120   58.7930   40.4820 N.4       1 SUB1        0.345
      8 CA2        50.3570   58.2420   40.4260 C.3       1 SUB1       -0.005
      9 CA3        51.3090   58.9710   41.3910 C.3       1 SUB1        0.103
     10 OA4        50.7670   59.0030   42.7200 O.3       1 SUB1       -0.320
     11 C21        51.6860   59.2410   43.7660 C.ar      1 SUB1        0.069
     12 C22        51.6380   58.5000   44.9710 C.ar      1 SUB1       -0.025
     13 C23        52.2140   59.0250   46.1450 C.ar      1 SUB1        0.047
     14 C24        53.0180   60.1840   46.0710 C.ar      1 SUB1       -0.056
     15 C25        53.1420   60.8710   44.8590 C.ar      1 SUB1       -0.070
     16 C26        52.5570   60.3530   43.6960 C.ar      1 SUB1       -0.049
     17 C27        54.1780   61.9570   44.7040 C.3       1 SUB1       -0.037
     18 NB1        52.2660   58.2310   47.3180 N.am      1 SUB1       -0.191
     19 SB2        50.9340   58.3490   48.2640 S.o2      1 SUB1        0.089
     20 OBA        51.1400   57.4350   49.3600 O.2       1 SUB1       -0.145
     21 OBB        49.7050   58.0150   47.5850 O.2       1 SUB1       -0.145
     22 C31        50.7250   59.9530   48.9100 C.ar      1 SUB1        0.114
     23 C32        49.4410   60.5040   48.9530 C.ar      1 SUB1       -0.035
     24 C33        49.3270   61.8920   49.1570 C.ar      1 SUB1       -0.060
     25 C34        50.3900   62.5890   49.7680 C.ar      1 SUB1       -0.062
     26 C35        51.6420   61.9500   49.9290 C.ar      1 SUB1       -0.060
     27 C36        51.7980   60.5990   49.5380 C.ar      1 SUB1       -0.035
     28 H21        47.1659   54.5423   40.5880 H         1 SUB1        0.084
     29 H31        49.0993   56.0980   40.4903 H         1 SUB1        0.082
     30 H51        46.4548   59.4680   40.2800 H         1 SUB1        0.082
     31 H61        44.5010   57.9608   40.5100 H         1 SUB1        0.084
     32 H71        48.9518   59.3447   41.3235 H         1 SUB1        0.175
     33 H72        48.9028   59.3922   39.6788 H         1 SUB1        0.175
     34 H81        50.7419   58.3434   39.4005 H         1 SUB1        0.075
     35 H82        50.3182   57.1773   40.6995 H         1 SUB1        0.075
     36 H91        51.4588   60.0021   41.0385 H         1 SUB1        0.066
     37 H92        52.2752   58.4456   41.4089 H         1 SUB1        0.066
     38 H121       51.1580   57.5283   44.9907 H         1 SUB1        0.034
     39 H141       53.5383   60.5406   46.9526 H         1 SUB1        0.033
     40 H161       52.7735   60.8077   42.7361 H         1 SUB1        0.034
     41 H171       54.5430   62.2599   45.6965 H         1 SUB1        0.039
     42 H172       53.7276   62.8241   44.1987 H         1 SUB1        0.039
     43 H173       55.0187   61.5788   44.1039 H         1 SUB1        0.039
     44 H181       53.0469   57.6501   47.5477 H         1 SUB1        0.216
     45 H231       48.5612   59.8822   48.8331 H         1 SUB1        0.064
     46 H241       48.4319   62.4195   48.8478 H         1 SUB1        0.062
     47 H251       50.2488   63.6073   50.1119 H         1 SUB1        0.062
     48 H261       52.4795   62.4939   50.3507 H         1 SUB1        0.062
     49 H271       52.7289   60.0745   49.7207 H         1 SUB1        0.064
@<TRIPOS>BOND
     1    1    6 ar 
     2    1    2 ar 
     3    2    3 ar 
     4    3    4 ar 
     5    4    7 1  
     6    4    5 ar 
     7    5    6 ar 
     8    7    8 1  
     9    8    9 1  
    10    9   10 1  
    11   10   11 1  
    12   11   16 ar 
    13   11   12 ar 
    14   12   13 ar 
    15   13   18 1  
    16   13   14 ar 
    17   14   15 ar 
    18   15   17 1  
    19   15   16 ar 
    20   18   19 1  
    21   19   22 1  
    22   19   21 2  
    23   19   20 2  
    24   22   27 ar 
    25   22   23 ar 
    26   23   24 ar 
    27   24   25 ar 
    28   25   26 ar 
    29   26   27 ar 
    30    2   28 1  
    31    3   29 1  
    32    5   30 1  
    33    6   31 1  
    34    7   32 1  
    35    7   33 1  
    36    8   34 1  
    37    8   35 1  
    38    9   36 1  
    39    9   37 1  
    40   12   38 1  
    41   14   39 1  
    42   16   40 1  
    43   17   41 1  
    44   17   42 1  
    45   17   43 1  
    46   18   44 1  
    47   23   45 1  
    48   24   46 1  
    49   25   47 1  
    50   26   48 1  
    51   27   49 1  
@<TRIPOS>SUBSTRUCTURE
     1 SUB1        1 GROUP

