### 
### Created by X-TOOL on Tue Oct 25 02:21:32 2005
### 

@<TRIPOS>MOLECULE
1onz_ligand
   37    39     1     0     0
SMALL
GAST_HUCK


@<TRIPOS>ATOM
      1 O21        35.8660   29.8950   23.2960 O.co2     1 SUB1       -0.690
      2 C20        34.9710   29.0780   23.5070 C.2       1 SUB1       -0.082
      3 O22        33.9160   29.3710   24.3340 O.co2     1 SUB1       -0.690
      4 C18        34.8950   27.6600   22.8730 C.2       1 SUB1        0.122
      5 O23        34.4070   26.8030   23.6910 O.2       1 SUB1       -0.479
      6 N17        34.2080   27.4370   21.5970 N.am      1 SUB1       -0.164
      7 C19        34.1390   26.0780   20.9950 C.ar      1 SUB1        0.173
      8 C24        32.8490   25.6860   20.3650 C.ar      1 SUB1        0.013
      9 C25        32.6140   24.4070   19.7350 C.ar      1 SUB1       -0.036
     10 C26        33.6610   23.4220   19.6890 C.ar      1 SUB1       -0.035
     11 C27        34.9300   23.7190   20.2690 C.ar      1 SUB1       -0.009
     12 C28        35.2230   25.0330   20.9350 C.ar      1 SUB1        0.143
     13 C33        36.6220   25.1500   21.4820 C.2       1 SUB1        0.199
     14 O34        37.0940   24.0660   22.1940 O.co2     1 SUB1       -0.463
     15 O35        37.2970   26.1320   21.3320 O.co2     1 SUB1       -0.463
     16 C13        33.6070   28.5670   20.9160 C.ar      1 SUB1        0.122
     17 C12        32.3100   29.0750   21.3400 C.ar      1 SUB1       -0.028
     18 C11        31.6590   30.2050   20.6940 C.ar      1 SUB1       -0.072
     19 C10        32.2910   30.8740   19.5820 C.ar      1 SUB1       -0.068
     20 C3         33.5960   30.3930   19.1210 C.ar      1 SUB1       -0.029
     21 C2         34.2400   31.0480   18.0000 C.ar      1 SUB1       -0.059
     22 C1         35.5500   30.5870   17.5150 C.ar      1 SUB1       -0.029
     23 C6         36.2020   29.4790   18.1570 C.ar      1 SUB1        0.088
     24 O36        37.4520   29.0260   17.7120 O.3       1 SUB1       -0.333
     25 C5         35.5620   28.8250   19.2680 C.ar      1 SUB1       -0.026
     26 C4         34.2580   29.2510   19.7800 C.ar      1 SUB1        0.015
     27 H81        32.0365   26.4034   20.3796 H         1 SUB1        0.066
     28 H91        31.6469   24.1895   19.2963 H         1 SUB1        0.086
     29 H101       33.4872   22.4616   19.2174 H         1 SUB1        0.065
     30 H111       35.7115   22.9689   20.2276 H         1 SUB1        0.086
     31 H171       31.8088   28.5917   22.1708 H         1 SUB1        0.054
     32 H181       30.6937   30.5463   21.0501 H         1 SUB1        0.056
     33 H191       31.8096   31.7158   19.0975 H         1 SUB1        0.052
     34 H211       33.7519   31.8853   17.5145 H         1 SUB1        0.060
     35 H221       36.0228   31.0823   16.6746 H         1 SUB1        0.059
     36 H241       37.7306   28.2923   18.2473 H         1 SUB1        0.248
     37 H251       36.0625   27.9884   19.7419 H         1 SUB1        0.051
@<TRIPOS>BOND
     1    1    2 2  
     2    2    3 2  
     3    2    4 1  
     4    4    5 2  
     5    4    6 am 
     6    6    7 1  
     7    6   16 1  
     8    7    8 ar 
     9    7   12 ar 
    10    8    9 ar 
    11    9   10 ar 
    12   10   11 ar 
    13   11   12 ar 
    14   12   13 1  
    15   13   14 2  
    16   13   15 2  
    17   16   17 ar 
    18   16   26 ar 
    19   17   18 ar 
    20   18   19 ar 
    21   19   20 ar 
    22   20   21 ar 
    23   20   26 ar 
    24   21   22 ar 
    25   22   23 ar 
    26   23   24 1  
    27   23   25 ar 
    28   25   26 ar 
    29    8   27 1  
    30    9   28 1  
    31   10   29 1  
    32   11   30 1  
    33   17   31 1  
    34   18   32 1  
    35   19   33 1  
    36   21   34 1  
    37   22   35 1  
    38   24   36 1  
    39   25   37 1  
@<TRIPOS>SUBSTRUCTURE
     1 SUB1        1 GROUP

