### 
### Created by X-TOOL on Mon Oct 24 23:09:01 2005
### 

@<TRIPOS>MOLECULE
1mhw_ligand
  101   104     1     0     0
SMALL
GAST_HUCK


@<TRIPOS>ATOM
      1 CA         -3.7460   13.4580  124.2040 C.3       1 SUB1        0.071
      2 C          -3.6560   14.3890  123.0160 C.2       1 SUB1        0.190
      3 O          -3.1580   13.9460  121.9760 O.2       1 SUB1       -0.394
      4 C2         -3.3070   15.3360  128.2050 C.ar      1 SUB1       -0.024
      5 C3         -2.1300   14.8850  127.4470 C.ar      1 SUB1       -0.060
      6 C4         -2.2710   14.2830  126.1380 C.ar      1 SUB1       -0.057
      7 C5         -3.5910   14.1130  125.5610 C.ar      1 SUB1       -0.023
      8 C6         -4.7680   14.5560  126.2880 C.ar      1 SUB1       -0.057
      9 C1         -4.6330   15.1610  127.5880 C.ar      1 SUB1       -0.060
     10 C11        -2.8670   17.1420  132.2680 C.ar      1 SUB1       -0.063
     11 C18        -4.3130   16.1010  130.4840 C.ar      1 SUB1       -0.056
     12 C20        -3.1540   15.9580  129.5890 C.ar      1 SUB1       -0.022
     13 C23        -4.1750   16.6850  131.8100 C.ar      1 SUB1       -0.062
     14 C25        -1.8430   16.4250  130.0750 C.ar      1 SUB1       -0.056
     15 C26        -1.7020   17.0100  131.4020 C.ar      1 SUB1       -0.062
     16 N          -3.7380   15.8070  123.1760 N.am      1 SUB1       -0.263
     17 CA         -3.3210   16.6960  122.2450 C.3       1 SUB1        0.140
     18 C          -2.2900   17.6900  122.5500 C.2       1 SUB1        0.205
     19 O          -1.8590   17.8680  123.7070 O.2       1 SUB1       -0.394
     20 CB         -4.6070   17.4400  121.6680 C.3       1 SUB1        0.031
     21 SG         -5.9720   16.3120  121.1490 S.3       1 SUB1       -0.174
     22 N          -1.9110   18.3430  121.3460 N.am      1 SUB1       -0.264
     23 CA         -0.8260   19.4220  121.3860 C.3       1 SUB1        0.131
     24 CB         -1.1890   20.6950  122.2750 C.3       1 SUB1       -0.011
     25 CG         -2.6210   21.3250  122.0140 C.3       1 SUB1       -0.030
     26 CD         -2.5350   22.7860  121.9630 C.3       1 SUB1        0.051
     27 NE         -3.6290   23.6130  121.7690 N.pl3     1 SUB1       -0.170
     28 CZ         -4.4780   23.7360  120.6490 C.cat     1 SUB1        0.387
     29 NH1        -4.0390   23.8440  119.3510 N.pl3     1 SUB1       -0.183
     30 NH2        -5.8250   23.7690  120.7540 N.pl3     1 SUB1       -0.183
     31 C          -0.2550   19.9000  120.0890 C.2       1 SUB1        0.204
     32 O           0.8780   20.4090  120.1130 O.2       1 SUB1       -0.394
     33 N          -0.9970   19.7810  118.9970 N.am      1 SUB1       -0.262
     34 CA         -0.5670   20.2220  117.7750 C.3       1 SUB1        0.139
     35 C          -0.9370   21.7280  117.8340 C.2       1 SUB1        0.204
     36 O          -2.0950   22.0340  118.2170 O.2       1 SUB1       -0.394
     37 CB         -1.2670   19.5820  116.5060 C.3       1 SUB1        0.016
     38 CG         -0.9460   20.3900  115.2050 C.ar      1 SUB1       -0.049
     39 CD1         0.2340   20.0580  114.4150 C.ar      1 SUB1       -0.068
     40 CD2        -1.8250   21.5030  114.7690 C.ar      1 SUB1       -0.068
     41 CE1         0.5310   20.8250  113.2280 C.ar      1 SUB1       -0.040
     42 CE2        -1.5110   22.2510  113.5940 C.ar      1 SUB1       -0.040
     43 CZ         -0.3400   21.9170  112.8260 C.ar      1 SUB1        0.080
     44 OH         -0.0530   22.6400  111.7230 O.3       1 SUB1       -0.338
     45 C1'         1.5620   24.9460  119.0640 C.ar      1 SUB1       -0.041
     46 C6'         2.5320   25.3190  118.0360 C.ar      1 SUB1       -0.060
     47 C5'         3.9410   25.4040  118.3670 C.ar      1 SUB1       -0.069
     48 C4'         4.3790   25.1200  119.7200 C.ar      1 SUB1       -0.069
     49 C3'         3.4160   24.7460  120.7400 C.ar      1 SUB1       -0.069
     50 C2'         2.0130   24.6590  120.4170 C.ar      1 SUB1       -0.060
     51 C2          0.0910   24.8530  118.7270 C.3       1 SUB1        0.001
     52 C1         -0.4890   24.3110  117.4620 C.3       1 SUB1        0.041
     53 N          -0.0520   22.8520  117.4330 N.am      1 SUB1       -0.283
     54 H11        -2.9549   12.7006  124.1013 H         1 SUB1        0.066
     55 H12        -4.7298   12.9669  124.1755 H         1 SUB1        0.066
     56 H51        -1.1415   15.0053  127.8752 H         1 SUB1        0.061
     57 H61        -1.3928   13.9602  125.5906 H         1 SUB1        0.056
     58 H81        -5.7518   14.4307  125.8503 H         1 SUB1        0.056
     59 H91        -5.5183   15.4917  128.1190 H         1 SUB1        0.061
     60 H101       -2.7616   17.5803  133.2538 H         1 SUB1        0.061
     61 H111       -5.2879   15.7651  130.1496 H         1 SUB1        0.062
     62 H131       -5.0409   16.7802  132.4552 H         1 SUB1        0.062
     63 H141       -0.9720   16.3319  129.4365 H         1 SUB1        0.062
     64 H151       -0.7306   17.3471  131.7452 H         1 SUB1        0.062
     65 H161       -4.1264   16.1630  124.0260 H         1 SUB1        0.188
     66 H171       -2.8965   16.0861  121.4339 H         1 SUB1        0.081
     67 H201       -4.2986   18.0318  120.7935 H         1 SUB1        0.042
     68 H202       -4.9942   18.1124  122.4477 H         1 SUB1        0.042
     69 H211       -6.7429   16.8585  120.7982 H         1 SUB1        0.102
     70 H221       -2.3491   18.0998  120.4806 H         1 SUB1        0.188
     71 H231        0.0128   18.9302  121.9004 H         1 SUB1        0.080
     72 H241       -0.4359   21.4721  122.0774 H         1 SUB1        0.031
     73 H242       -1.1383   20.3955  123.3322 H         1 SUB1        0.031
     74 H251       -3.3003   21.0302  122.8274 H         1 SUB1        0.028
     75 H252       -3.0121   20.9515  121.0562 H         1 SUB1        0.028
     76 H261       -1.8360   23.0169  121.1457 H         1 SUB1        0.050
     77 H262       -2.0926   23.0940  122.9219 H         1 SUB1        0.050
     78 H271       -3.8568   24.2307  122.5611 H         1 SUB1        0.198
     79 H291       -4.7195   23.9308  118.5827 H         1 SUB1        0.194
     80 H292       -3.0295   23.8382  119.1466 H         1 SUB1        0.194
     81 H301       -6.2714   23.6962  121.6794 H         1 SUB1        0.194
     82 H302       -6.4052   23.8669  119.9086 H         1 SUB1        0.194
     83 H331       -1.8992   19.3557  119.0684 H         1 SUB1        0.189
     84 H341        0.5197   20.0762  117.6865 H         1 SUB1        0.082
     85 H371       -2.3557   19.5759  116.6634 H         1 SUB1        0.045
     86 H372       -0.9085   18.5494  116.3829 H         1 SUB1        0.045
     87 H391        0.8822   19.2430  114.7160 H         1 SUB1        0.053
     88 H401       -2.7096   21.7494  115.3451 H         1 SUB1        0.053
     89 H411        1.4062   20.5856  112.6350 H         1 SUB1        0.052
     90 H421       -2.1520   23.0674  113.2814 H         1 SUB1        0.052
     91 H441        0.7418   22.3054  111.3243 H         1 SUB1        0.246
     92 H461        2.1981   25.5319  117.0269 H         1 SUB1        0.056
     93 H471        4.6635   25.6785  117.6069 H         1 SUB1        0.060
     94 H481        5.4314   25.1874  119.9711 H         1 SUB1        0.056
     95 H491        3.7526   24.5314  121.7478 H         1 SUB1        0.060
     96 H501        1.2961   24.3803  121.1808 H         1 SUB1        0.056
     97 H511       -0.2865   25.8837  118.7983 H         1 SUB1        0.045
     98 H512       -0.3504   24.2445  119.5300 H         1 SUB1        0.045
     99 H521       -0.0931   24.8523  116.5901 H         1 SUB1        0.054
    100 H522       -1.5863   24.3875  117.4739 H         1 SUB1        0.054
    101 H531        0.8768   22.6402  117.1289 H         1 SUB1        0.185
@<TRIPOS>BOND
     1    2    1 1  
     2    1    7 1  
     3    2    3 2  
     4   16    2 am 
     5    5    4 ar 
     6    9    4 ar 
     7    4   12 1  
     8    6    5 ar 
     9    7    6 ar 
    10    7    8 ar 
    11    8    9 ar 
    12   13   10 ar 
    13   15   10 ar 
    14   12   11 ar 
    15   11   13 ar 
    16   12   14 ar 
    17   14   15 ar 
    18   17   16 1  
    19   18   17 1  
    20   17   20 1  
    21   18   19 2  
    22   22   18 am 
    23   20   21 1  
    24   23   22 1  
    25   23   24 1  
    26   31   23 1  
    27   24   25 1  
    28   25   26 1  
    29   26   27 1  
    30   27   28 1  
    31   28   29 1  
    32   28   30 1  
    33   31   32 2  
    34   33   31 am 
    35   34   33 1  
    36   35   34 1  
    37   34   37 1  
    38   35   36 2  
    39   53   35 am 
    40   37   38 1  
    41   38   39 ar 
    42   38   40 ar 
    43   39   41 ar 
    44   40   42 ar 
    45   41   43 ar 
    46   42   43 ar 
    47   43   44 1  
    48   45   46 ar 
    49   45   50 ar 
    50   51   45 1  
    51   46   47 ar 
    52   47   48 ar 
    53   49   48 ar 
    54   50   49 ar 
    55   52   51 1  
    56   52   53 1  
    57    1   54 1  
    58    1   55 1  
    59    5   56 1  
    60    6   57 1  
    61    8   58 1  
    62    9   59 1  
    63   10   60 1  
    64   11   61 1  
    65   13   62 1  
    66   14   63 1  
    67   15   64 1  
    68   16   65 1  
    69   17   66 1  
    70   20   67 1  
    71   20   68 1  
    72   21   69 1  
    73   22   70 1  
    74   23   71 1  
    75   24   72 1  
    76   24   73 1  
    77   25   74 1  
    78   25   75 1  
    79   26   76 1  
    80   26   77 1  
    81   27   78 1  
    82   29   79 1  
    83   29   80 1  
    84   30   81 1  
    85   30   82 1  
    86   33   83 1  
    87   34   84 1  
    88   37   85 1  
    89   37   86 1  
    90   39   87 1  
    91   40   88 1  
    92   41   89 1  
    93   42   90 1  
    94   44   91 1  
    95   46   92 1  
    96   47   93 1  
    97   48   94 1  
    98   49   95 1  
    99   50   96 1  
   100   51   97 1  
   101   51   98 1  
   102   52   99 1  
   103   52  100 1  
   104   53  101 1  
@<TRIPOS>SUBSTRUCTURE
     1 SUB1        1 GROUP

