1mhw_ligand
  -I-interpret- 

101104  0  0  0  0  0  0  0  0999 V2000
   -3.7460   13.4580  124.2040 C   0  0  0  0  0
   -3.6560   14.3890  123.0160 C   0  0  0  0  0
   -3.1580   13.9460  121.9760 O   0  0  0  0  0
   -3.3070   15.3360  128.2050 C   0  0  0  0  0
   -2.1300   14.8850  127.4470 C   0  0  0  0  0
   -2.2710   14.2830  126.1380 C   0  0  0  0  0
   -3.5910   14.1130  125.5610 C   0  0  0  0  0
   -4.7680   14.5560  126.2880 C   0  0  0  0  0
   -4.6330   15.1610  127.5880 C   0  0  0  0  0
   -2.8670   17.1420  132.2680 C   0  0  0  0  0
   -4.3130   16.1010  130.4840 C   0  0  0  0  0
   -3.1540   15.9580  129.5890 C   0  0  0  0  0
   -4.1750   16.6850  131.8100 C   0  0  0  0  0
   -1.8430   16.4250  130.0750 C   0  0  0  0  0
   -1.7020   17.0100  131.4020 C   0  0  0  0  0
   -3.7380   15.8070  123.1760 N   0  0  0  0  0
   -3.3210   16.6960  122.2450 C   0  0  0  0  0
   -2.2900   17.6900  122.5500 C   0  0  0  0  0
   -1.8590   17.8680  123.7070 O   0  0  0  0  0
   -4.6070   17.4400  121.6680 C   0  0  0  0  0
   -5.9720   16.3120  121.1490 S   0  0  0  0  0
   -1.9110   18.3430  121.3460 N   0  0  0  0  0
   -0.8260   19.4220  121.3860 C   0  0  0  0  0
   -1.1890   20.6950  122.2750 C   0  0  0  0  0
   -2.6210   21.3250  122.0140 C   0  0  0  0  0
   -2.5350   22.7860  121.9630 C   0  0  0  0  0
   -3.6290   23.6130  121.7690 N   0  0  0  0  0
   -4.4780   23.7360  120.6490 C   0  3  0  0  0
   -4.0390   23.8440  119.3510 N   0  0  0  0  0
   -5.8250   23.7690  120.7540 N   0  0  0  0  0
   -0.2550   19.9000  120.0890 C   0  0  0  0  0
    0.8780   20.4090  120.1130 O   0  0  0  0  0
   -0.9970   19.7810  118.9970 N   0  0  0  0  0
   -0.5670   20.2220  117.7750 C   0  0  0  0  0
   -0.9370   21.7280  117.8340 C   0  0  0  0  0
   -2.0950   22.0340  118.2170 O   0  0  0  0  0
   -1.2670   19.5820  116.5060 C   0  0  0  0  0
   -0.9460   20.3900  115.2050 C   0  0  0  0  0
    0.2340   20.0580  114.4150 C   0  0  0  0  0
   -1.8250   21.5030  114.7690 C   0  0  0  0  0
    0.5310   20.8250  113.2280 C   0  0  0  0  0
   -1.5110   22.2510  113.5940 C   0  0  0  0  0
   -0.3400   21.9170  112.8260 C   0  0  0  0  0
   -0.0530   22.6400  111.7230 O   0  0  0  0  0
    1.5620   24.9460  119.0640 C   0  0  0  0  0
    2.5320   25.3190  118.0360 C   0  0  0  0  0
    3.9410   25.4040  118.3670 C   0  0  0  0  0
    4.3790   25.1200  119.7200 C   0  0  0  0  0
    3.4160   24.7460  120.7400 C   0  0  0  0  0
    2.0130   24.6590  120.4170 C   0  0  0  0  0
    0.0910   24.8530  118.7270 C   0  0  0  0  0
   -0.4890   24.3110  117.4620 C   0  0  0  0  0
   -0.0520   22.8520  117.4330 N   0  0  0  0  0
   -2.9549   12.7006  124.1013 H   0  0  0  0  0
   -4.7298   12.9669  124.1755 H   0  0  0  0  0
   -1.1415   15.0053  127.8752 H   0  0  0  0  0
   -1.3928   13.9602  125.5906 H   0  0  0  0  0
   -5.7518   14.4307  125.8503 H   0  0  0  0  0
   -5.5183   15.4917  128.1190 H   0  0  0  0  0
   -2.7616   17.5803  133.2538 H   0  0  0  0  0
   -5.2879   15.7651  130.1496 H   0  0  0  0  0
   -5.0409   16.7802  132.4552 H   0  0  0  0  0
   -0.9720   16.3319  129.4365 H   0  0  0  0  0
   -0.7306   17.3471  131.7452 H   0  0  0  0  0
   -4.1264   16.1630  124.0260 H   0  0  0  0  0
   -2.8965   16.0861  121.4339 H   0  0  0  0  0
   -4.2986   18.0318  120.7935 H   0  0  0  0  0
   -4.9942   18.1124  122.4477 H   0  0  0  0  0
   -6.7429   16.8585  120.7982 H   0  0  0  0  0
   -2.3491   18.0998  120.4806 H   0  0  0  0  0
    0.0128   18.9302  121.9004 H   0  0  0  0  0
   -0.4359   21.4721  122.0774 H   0  0  0  0  0
   -1.1383   20.3955  123.3322 H   0  0  0  0  0
   -3.3003   21.0302  122.8274 H   0  0  0  0  0
   -3.0121   20.9515  121.0562 H   0  0  0  0  0
   -1.8360   23.0169  121.1457 H   0  0  0  0  0
   -2.0926   23.0940  122.9219 H   0  0  0  0  0
   -3.8568   24.2307  122.5611 H   0  0  0  0  0
   -4.7195   23.9308  118.5827 H   0  0  0  0  0
   -3.0295   23.8382  119.1466 H   0  0  0  0  0
   -6.2714   23.6962  121.6794 H   0  0  0  0  0
   -6.4052   23.8669  119.9086 H   0  0  0  0  0
   -1.8992   19.3557  119.0684 H   0  0  0  0  0
    0.5197   20.0762  117.6865 H   0  0  0  0  0
   -2.3557   19.5759  116.6634 H   0  0  0  0  0
   -0.9085   18.5494  116.3829 H   0  0  0  0  0
    0.8822   19.2430  114.7160 H   0  0  0  0  0
   -2.7096   21.7494  115.3451 H   0  0  0  0  0
    1.4062   20.5856  112.6350 H   0  0  0  0  0
   -2.1520   23.0674  113.2814 H   0  0  0  0  0
    0.7418   22.3054  111.3243 H   0  0  0  0  0
    2.1981   25.5319  117.0269 H   0  0  0  0  0
    4.6635   25.6785  117.6069 H   0  0  0  0  0
    5.4314   25.1874  119.9711 H   0  0  0  0  0
    3.7526   24.5314  121.7478 H   0  0  0  0  0
    1.2961   24.3803  121.1808 H   0  0  0  0  0
   -0.2865   25.8837  118.7983 H   0  0  0  0  0
   -0.3504   24.2445  119.5300 H   0  0  0  0  0
   -0.0931   24.8523  116.5901 H   0  0  0  0  0
   -1.5863   24.3875  117.4739 H   0  0  0  0  0
    0.8768   22.6402  117.1289 H   0  0  0  0  0
  2  1  1  0  0  0
  1  7  1  0  0  0
  2  3  2  0  0  0
 16  2  1  0  0  0
  5  4  4  0  0  0
  9  4  4  0  0  0
  4 12  1  0  0  0
  6  5  4  0  0  0
  7  6  4  0  0  0
  7  8  4  0  0  0
  8  9  4  0  0  0
 13 10  4  0  0  0
 15 10  4  0  0  0
 12 11  4  0  0  0
 11 13  4  0  0  0
 12 14  4  0  0  0
 14 15  4  0  0  0
 17 16  1  0  0  0
 18 17  1  0  0  0
 17 20  1  0  0  0
 18 19  2  0  0  0
 22 18  1  0  0  0
 20 21  1  0  0  0
 23 22  1  0  0  0
 23 24  1  0  0  0
 31 23  1  0  0  0
 24 25  1  0  0  0
 25 26  1  0  0  0
 26 27  1  0  0  0
 27 28  1  0  0  0
 28 29  1  0  0  0
 28 30  1  0  0  0
 31 32  2  0  0  0
 33 31  1  0  0  0
 34 33  1  0  0  0
 35 34  1  0  0  0
 34 37  1  0  0  0
 35 36  2  0  0  0
 53 35  1  0  0  0
 37 38  1  0  0  0
 38 39  4  0  0  0
 38 40  4  0  0  0
 39 41  4  0  0  0
 40 42  4  0  0  0
 41 43  4  0  0  0
 42 43  4  0  0  0
 43 44  1  0  0  0
 45 46  4  0  0  0
 45 50  4  0  0  0
 51 45  1  0  0  0
 46 47  4  0  0  0
 47 48  4  0  0  0
 49 48  4  0  0  0
 50 49  4  0  0  0
 52 51  1  0  0  0
 52 53  1  0  0  0
  1 54  1  0  0  0
  1 55  1  0  0  0
  5 56  1  0  0  0
  6 57  1  0  0  0
  8 58  1  0  0  0
  9 59  1  0  0  0
 10 60  1  0  0  0
 11 61  1  0  0  0
 13 62  1  0  0  0
 14 63  1  0  0  0
 15 64  1  0  0  0
 16 65  1  0  0  0
 17 66  1  0  0  0
 20 67  1  0  0  0
 20 68  1  0  0  0
 21 69  1  0  0  0
 22 70  1  0  0  0
 23 71  1  0  0  0
 24 72  1  0  0  0
 24 73  1  0  0  0
 25 74  1  0  0  0
 25 75  1  0  0  0
 26 76  1  0  0  0
 26 77  1  0  0  0
 27 78  1  0  0  0
 29 79  1  0  0  0
 29 80  1  0  0  0
 30 81  1  0  0  0
 30 82  1  0  0  0
 33 83  1  0  0  0
 34 84  1  0  0  0
 37 85  1  0  0  0
 37 86  1  0  0  0
 39 87  1  0  0  0
 40 88  1  0  0  0
 41 89  1  0  0  0
 42 90  1  0  0  0
 44 91  1  0  0  0
 46 92  1  0  0  0
 47 93  1  0  0  0
 48 94  1  0  0  0
 49 95  1  0  0  0
 50 96  1  0  0  0
 51 97  1  0  0  0
 51 98  1  0  0  0
 52 99  1  0  0  0
 52100  1  0  0  0
 53101  1  0  0  0
M  END
$$$$
