### 
### Created by X-TOOL on Tue Oct 25 02:30:53 2005
### 

@<TRIPOS>MOLECULE
1aaq_ligand
   89    89     1     0     0
SMALL
GAST_HUCK


@<TRIPOS>ATOM
      1 CB1        -4.8320   18.1790   -4.8280 C.3       1 SUB1       -0.004
      2 C1         -5.8830   17.4740   -5.6800 C.3       1 SUB1        0.062
      3 N4         -5.7410   17.9380   -7.0390 N.4       1 SUB1        0.238
      4 C2         -7.2840   17.7850   -5.1510 C.2       1 SUB1        0.226
      5 O3         -7.8780   18.7950   -5.5030 O.2       1 SUB1       -0.391
      6 N12        -7.7640   16.9320   -4.2320 N.am      1 SUB1       -0.261
      7 CA1        -9.0680   17.1150   -3.5730 C.3       1 SUB1        0.128
      8 CB3       -10.0880   16.1150   -4.1410 C.3       1 SUB1       -0.024
      9 C15        -8.8180   16.8680   -2.0810 C.2       1 SUB1        0.202
     10 O16        -8.4350   15.7610   -1.7290 O.2       1 SUB1       -0.394
     11 N22        -8.9820   17.9020   -1.2370 N.am      1 SUB1       -0.278
     12 CA2        -8.6630   17.8220    0.2180 C.3       1 SUB1        0.078
     13 CB2        -7.6860   18.9390    0.6230 C.3       1 SUB1        0.006
     14 CG2        -6.3150   18.8260   -0.0240 C.ar      1 SUB1       -0.041
     15 CD1        -5.9580   19.6050   -1.1370 C.ar      1 SUB1       -0.060
     16 CD2        -5.3680   17.9530    0.5460 C.ar      1 SUB1       -0.060
     17 CE1        -4.6690   19.4940   -1.6820 C.ar      1 SUB1       -0.069
     18 CE2        -4.0860   17.8370   -0.0040 C.ar      1 SUB1       -0.069
     19 CZ3        -3.7290   18.6210   -1.1100 C.ar      1 SUB1       -0.069
     20 C31        -9.9260   17.8710    1.1670 C.3       1 SUB1        0.082
     21 O32       -10.8640   19.0150    1.0930 O.3       1 SUB1       -0.389
     22 C44       -10.7740   16.6120    0.9150 C.3       1 SUB1       -0.008
     23 CA4       -11.8840   16.4140    1.9720 C.3       1 SUB1        0.040
     24 C46       -11.3700   15.7810    3.2710 C.2       1 SUB1        0.178
     25 O47       -10.7800   14.7100    3.1960 O.2       1 SUB1       -0.397
     26 N52       -11.6290   16.3670    4.4580 N.am      1 SUB1       -0.265
     27 CA5       -11.2800   15.6530    5.7110 C.3       1 SUB1        0.133
     28 CB5       -10.4320   16.5190    6.6690 C.3       1 SUB1       -0.006
     29 CG6        -9.9680   15.7260    7.9080 C.3       1 SUB1       -0.058
     30 CG5        -9.1670   17.0370    5.9540 C.3       1 SUB1       -0.058
     31 C57       -12.5960   15.1310    6.3280 C.2       1 SUB1        0.204
     32 O58       -13.5770   15.8440    6.4930 O.2       1 SUB1       -0.394
     33 N68       -12.5390   13.8420    6.6570 N.am      1 SUB1       -0.262
     34 CA6       -13.5190   12.9170    7.2560 C.3       1 SUB1        0.145
     35 CB7       -14.1680   12.0520    6.1210 C.3       1 SUB1       -0.005
     36 CG8       -15.2790   11.0900    6.6380 C.3       1 SUB1       -0.058
     37 CG7       -14.8520   12.9270    5.0450 C.3       1 SUB1       -0.058
     38 C73       -12.8290   12.0770    8.4190 C.2       1 SUB1        0.260
     39 OT7       -13.0000   12.6640    9.7100 O.3       1 SUB1       -0.278
     40 OXT       -11.5110   11.4360    8.2750 O.2       1 SUB1       -0.368
     41 C76       -13.0560   11.6970   10.7740 C.3       1 SUB1        0.066
     42 H11        -4.2466   17.4303   -4.2741 H         1 SUB1        0.031
     43 H12        -5.3296   18.8548   -4.1169 H         1 SUB1        0.031
     44 H13        -4.1621   18.7602   -5.4788 H         1 SUB1        0.031
     45 H21        -5.7181   16.3870   -5.6440 H         1 SUB1        0.109
     46 H31        -6.0299   17.1512   -7.7201 H         1 SUB1        0.201
     47 H32        -4.7120   18.2114   -7.2204 H         1 SUB1        0.201
     48 H61        -7.2110   16.1366   -3.9839 H         1 SUB1        0.188
     49 H71        -9.4368   18.1393   -3.7304 H         1 SUB1        0.080
     50 H81       -10.0705   16.1578   -5.2400 H         1 SUB1        0.028
     51 H82       -11.0945   16.3730   -3.7800 H         1 SUB1        0.028
     52 H83        -9.8288   15.0987   -3.8094 H         1 SUB1        0.028
     53 H111       -9.3340   18.7641   -1.6015 H         1 SUB1        0.186
     54 H121       -8.1648   16.8557    0.3856 H         1 SUB1        0.060
     55 H131       -7.5569   18.9065    1.7149 H         1 SUB1        0.045
     56 H132       -8.1261   19.9049    0.3344 H         1 SUB1        0.045
     57 H151       -6.6757   20.2899   -1.5738 H         1 SUB1        0.056
     58 H161       -5.6341   17.3662    1.4177 H         1 SUB1        0.056
     59 H171       -4.3976   20.0853   -2.5491 H         1 SUB1        0.060
     60 H181       -3.3715   17.1431    0.4239 H         1 SUB1        0.060
     61 H191       -2.7291   18.5536   -1.5231 H         1 SUB1        0.056
     62 H201       -9.5393   17.8444    2.1964 H         1 SUB1        0.062
     63 H211      -11.5630   18.8913    1.7243 H         1 SUB1        0.210
     64 H221      -10.1121   15.7336    0.9322 H         1 SUB1        0.032
     65 H222      -11.2440   16.6977   -0.0758 H         1 SUB1        0.032
     66 H231      -12.6600   15.7604    1.5470 H         1 SUB1        0.050
     67 H232      -12.3208   17.3953    2.2094 H         1 SUB1        0.050
     68 H261      -12.0516   17.2727    4.4931 H         1 SUB1        0.188
     69 H271      -10.6655   14.7800    5.4458 H         1 SUB1        0.080
     70 H281      -11.0415   17.3739    6.9970 H         1 SUB1        0.034
     71 H291      -10.2582   14.6707    7.7977 H         1 SUB1        0.023
     72 H292      -10.4407   16.1440    8.8090 H         1 SUB1        0.023
     73 H293       -8.8743   15.7978    8.0008 H         1 SUB1        0.023
     74 H301       -8.4185   16.2324    5.9043 H         1 SUB1        0.023
     75 H302       -8.7528   17.8890    6.5130 H         1 SUB1        0.023
     76 H303       -9.4277   17.3589    4.9350 H         1 SUB1        0.023
     77 H331      -11.6561   13.4166    6.4584 H         1 SUB1        0.189
     78 H341      -14.3216   13.5124    7.7157 H         1 SUB1        0.082
     79 H351      -13.3687   11.4586    5.6530 H         1 SUB1        0.034
     80 H361      -15.9793   10.8654    5.8200 H         1 SUB1        0.023
     81 H362      -15.8231   11.5692    7.4653 H         1 SUB1        0.023
     82 H363      -14.8190   10.1563    6.9938 H         1 SUB1        0.023
     83 H371      -14.1242   13.1776    4.2592 H         1 SUB1        0.023
     84 H372      -15.2252   13.8525    5.5079 H         1 SUB1        0.023
     85 H373      -15.6932   12.3733    4.6025 H         1 SUB1        0.023
     86 H411      -14.0389   11.7488   11.2652 H         1 SUB1        0.058
     87 H412      -12.2669   11.9144   11.5089 H         1 SUB1        0.058
     88 H413      -12.9050   10.6886   10.3613 H         1 SUB1        0.058
     89 H33        -6.3325   18.7413   -7.1833 H         1 SUB1        0.201
@<TRIPOS>BOND
     1    1    2 1  
     2    2    3 1  
     3    2    4 1  
     4    4    5 2  
     5    4    6 am 
     6    6    7 1  
     7    7    8 1  
     8    7    9 1  
     9    9   10 2  
    10    9   11 am 
    11   11   12 1  
    12   12   13 1  
    13   12   20 1  
    14   13   14 1  
    15   14   15 ar 
    16   14   16 ar 
    17   15   17 ar 
    18   16   18 ar 
    19   17   19 ar 
    20   18   19 ar 
    21   20   21 1  
    22   20   22 1  
    23   22   23 1  
    24   23   24 1  
    25   24   25 2  
    26   24   26 am 
    27   26   27 1  
    28   27   28 1  
    29   27   31 1  
    30   28   29 1  
    31   28   30 1  
    32   31   32 2  
    33   31   33 am 
    34   33   34 1  
    35   34   35 1  
    36   34   38 1  
    37   35   36 1  
    38   35   37 1  
    39   38   39 1  
    40   38   40 2  
    41   39   41 1  
    42    1   42 1  
    43    1   43 1  
    44    1   44 1  
    45    2   45 1  
    46    3   46 1  
    47    3   47 1  
    48    6   48 1  
    49    7   49 1  
    50    8   50 1  
    51    8   51 1  
    52    8   52 1  
    53   11   53 1  
    54   12   54 1  
    55   13   55 1  
    56   13   56 1  
    57   15   57 1  
    58   16   58 1  
    59   17   59 1  
    60   18   60 1  
    61   19   61 1  
    62   20   62 1  
    63   21   63 1  
    64   22   64 1  
    65   22   65 1  
    66   23   66 1  
    67   23   67 1  
    68   26   68 1  
    69   27   69 1  
    70   28   70 1  
    71   29   71 1  
    72   29   72 1  
    73   29   73 1  
    74   30   74 1  
    75   30   75 1  
    76   30   76 1  
    77   33   77 1  
    78   34   78 1  
    79   35   79 1  
    80   36   80 1  
    81   36   81 1  
    82   36   82 1  
    83   37   83 1  
    84   37   84 1  
    85   37   85 1  
    86   41   86 1  
    87   41   87 1  
    88   41   88 1  
    89    3   89 1  
@<TRIPOS>SUBSTRUCTURE
     1 SUB1        1 GROUP

