### 
### Created by X-TOOL on Mon Oct 24 22:01:23 2005
### 

@<TRIPOS>MOLECULE
1kjr_ligand
   68    70     1     0     0
SMALL
GAST_HUCK


@<TRIPOS>ATOM
      1 C1          2.6590   -8.2880    1.5890 C.2       1 SUB1        0.194
      2 O           2.5350   -7.6440    2.7720 O.2       1 SUB1       -0.394
      3 N           1.4680   -8.5870    0.9860 N.am      1 SUB1       -0.281
      4 C2          3.7870   -8.7550    0.9030 C.ar      1 SUB1        0.102
      5 C3          4.7170   -9.5220    1.7030 C.ar      1 SUB1        0.173
      6 C7          4.0600   -8.4890   -0.5510 C.ar      1 SUB1        0.173
      7 F3          4.5020   -9.7230    2.8510 F         1 SUB1       -0.185
      8 F7          3.3160   -7.8610   -1.2350 F         1 SUB1       -0.185
      9 C4          5.9010  -10.0330    1.1040 C.ar      1 SUB1        0.193
     10 C6          5.2700   -9.0100   -1.1410 C.ar      1 SUB1        0.193
     11 C5          6.2220   -9.7970   -0.3160 C.ar      1 SUB1        0.160
     12 F4          6.5870  -10.6120    1.7440 F         1 SUB1       -0.194
     13 F6          5.4670   -8.8140   -2.2160 F         1 SUB1       -0.194
     14 O5          7.2250  -10.2610   -0.6760 O.3       1 SUB1       -0.319
     15 C8          7.8410  -10.2180   -1.9470 C.3       1 SUB1        0.059
     16 C1         -2.2820   -8.9560    1.3620 C.3       1 SUB1        0.188
     17 C2         -0.8600   -9.4000    1.1410 C.3       1 SUB1        0.131
     18 C3          0.1110   -8.2710    1.3610 C.3       1 SUB1        0.100
     19 C4         -0.3190   -6.9710    0.6680 C.3       1 SUB1        0.109
     20 C5         -1.7690   -6.6680    0.9560 C.3       1 SUB1        0.113
     21 C6         -2.3000   -5.4840    0.1980 C.3       1 SUB1        0.073
     22 O2         -0.5360  -10.4400    2.0540 O.3       1 SUB1       -0.384
     23 O4         -0.1090   -7.1380   -0.7080 O.3       1 SUB1       -0.387
     24 O5         -2.5880   -7.7960    0.5840 O.3       1 SUB1       -0.340
     25 O6         -3.6860   -5.3160    0.4510 O.3       1 SUB1       -0.392
     26 C1         -6.9250  -11.3630    1.2440 C.3       1 SUB1        0.182
     27 C2         -6.7210  -10.4140    0.0340 C.3       1 SUB1        0.121
     28 C3         -5.1990  -10.3290   -0.1730 C.3       1 SUB1        0.111
     29 C4         -4.4900   -9.8840    1.1130 C.3       1 SUB1        0.118
     30 C5         -4.8440  -10.8490    2.2350 C.3       1 SUB1        0.113
     31 C6         -4.2030  -10.4790    3.5600 C.3       1 SUB1        0.073
     32 C7         -8.4650  -10.3970   -1.6860 C.2       1 SUB1        0.173
     33 C8         -9.0160  -11.0320   -2.9560 C.3       1 SUB1        0.026
     34 N2         -7.3870  -10.9760   -1.1430 N.am      1 SUB1       -0.277
     35 O1         -8.2690  -11.4640    1.5530 O.3       1 SUB1       -0.365
     36 O3         -4.8580   -9.4470   -1.2430 O.3       1 SUB1       -0.387
     37 O4         -3.0990   -9.9760    0.9050 O.3       1 SUB1       -0.340
     38 O5         -6.2610  -10.8290    2.3950 O.3       1 SUB1       -0.341
     39 O6         -4.5500   -9.1600    3.9020 O.3       1 SUB1       -0.392
     40 O7         -9.0280   -9.3990   -1.2220 O.2       1 SUB1       -0.397
     41 H31         1.5523   -9.1148    0.1408 H         1 SUB1        0.184
     42 H151        8.7897  -10.7737   -1.9136 H         1 SUB1        0.058
     43 H152        8.0384   -9.1718   -2.2236 H         1 SUB1        0.058
     44 H153        7.1745  -10.6751   -2.6932 H         1 SUB1        0.058
     45 H161       -2.4572   -8.7559    2.4294 H         1 SUB1        0.094
     46 H171       -0.7585   -9.7694    0.1099 H         1 SUB1        0.067
     47 H181        0.1151   -8.0750    2.4434 H         1 SUB1        0.061
     48 H191        0.2980   -6.1375    1.0349 H         1 SUB1        0.064
     49 H201       -1.8727   -6.4755    2.0340 H         1 SUB1        0.065
     50 H211       -2.1450   -5.6440   -0.8792 H         1 SUB1        0.058
     51 H212       -1.7613   -4.5790    0.5155 H         1 SUB1        0.058
     52 H221       -1.1377  -11.1651    1.9328 H         1 SUB1        0.210
     53 H231       -0.6415   -7.8588   -1.0233 H         1 SUB1        0.210
     54 H251       -4.1538   -6.0956    0.1755 H         1 SUB1        0.209
     55 H261       -6.5201  -12.3568    1.0025 H         1 SUB1        0.093
     56 H271       -7.1330   -9.4169    0.2486 H         1 SUB1        0.063
     57 H281       -4.8386  -11.3352   -0.4330 H         1 SUB1        0.064
     58 H291       -4.7798   -8.8564    1.3775 H         1 SUB1        0.065
     59 H301       -4.5149  -11.8600    1.9529 H         1 SUB1        0.065
     60 H311       -3.1094  -10.5583    3.4720 H         1 SUB1        0.058
     61 H312       -4.5586  -11.1653    4.3426 H         1 SUB1        0.058
     62 H331       -9.8947  -10.4654   -3.2977 H         1 SUB1        0.047
     63 H332       -9.3082  -12.0721   -2.7490 H         1 SUB1        0.047
     64 H333       -8.2431  -11.0171   -3.7386 H         1 SUB1        0.047
     65 H341       -7.0270  -11.8145   -1.5519 H         1 SUB1        0.186
     66 H351       -8.3787  -12.0416    2.2992 H         1 SUB1        0.213
     67 H361       -3.9180   -9.4650   -1.3794 H         1 SUB1        0.210
     68 H391       -5.4945   -9.0919    3.9784 H         1 SUB1        0.209
@<TRIPOS>BOND
     1    1    2 2  
     2    3    1 am 
     3    1    4 1  
     4   18    3 1  
     5    4    5 ar 
     6    4    6 ar 
     7    5    7 1  
     8    5    9 ar 
     9    6    8 1  
    10    6   10 ar 
    11    9   11 ar 
    12    9   12 1  
    13   10   11 ar 
    14   10   13 1  
    15   11   14 1  
    16   14   15 1  
    17   16   17 1  
    18   16   24 1  
    19   37   16 1  
    20   17   18 1  
    21   17   22 1  
    22   18   19 1  
    23   20   19 1  
    24   19   23 1  
    25   20   21 1  
    26   24   20 1  
    27   21   25 1  
    28   27   26 1  
    29   26   35 1  
    30   26   38 1  
    31   27   28 1  
    32   34   27 1  
    33   28   29 1  
    34   28   36 1  
    35   29   30 1  
    36   29   37 1  
    37   30   31 1  
    38   38   30 1  
    39   31   39 1  
    40   32   33 1  
    41   32   34 am 
    42   32   40 2  
    43    3   41 1  
    44   15   42 1  
    45   15   43 1  
    46   15   44 1  
    47   16   45 1  
    48   17   46 1  
    49   18   47 1  
    50   19   48 1  
    51   20   49 1  
    52   21   50 1  
    53   21   51 1  
    54   22   52 1  
    55   23   53 1  
    56   25   54 1  
    57   26   55 1  
    58   27   56 1  
    59   28   57 1  
    60   29   58 1  
    61   30   59 1  
    62   31   60 1  
    63   31   61 1  
    64   33   62 1  
    65   33   63 1  
    66   33   64 1  
    67   34   65 1  
    68   35   66 1  
    69   36   67 1  
    70   39   68 1  
@<TRIPOS>SUBSTRUCTURE
     1 SUB1        1 GROUP

