### 
### Created by X-TOOL on Mon Oct 24 23:21:44 2005
### 

@<TRIPOS>MOLECULE
1axz_ligand
   24    24     1     0     0
SMALL
GAST_HUCK


@<TRIPOS>ATOM
      1 H131       16.7062   -0.9398   37.5353 H         1 SUB1        0.094
      2 H141       16.3180   -0.9573   34.4941 H         1 SUB1        0.067
      3 H151       14.2520   -0.8935   36.7505 H         1 SUB1        0.065
      4 H161       13.6690   -3.1607   36.0484 H         1 SUB1        0.065
      5 H171       15.3945   -2.9354   37.7692 H         1 SUB1        0.065
      6 H181       16.2862   -5.0679   35.7809 H         1 SUB1        0.058
      7 H182       14.8760   -5.2289   36.8819 H         1 SUB1        0.058
      8 H191       18.8785   -1.1848   36.8601 H         1 SUB1        0.213
      9 H201       16.8452    1.0804   35.4482 H         1 SUB1        0.210
     10 H211       14.0146   -1.0776   33.9124 H         1 SUB1        0.210
     11 H221       14.3263   -2.9364   33.8434 H         1 SUB1        0.210
     12 H241       17.5792   -4.7870   37.6775 H         1 SUB1        0.209
     13 C1         16.9890   -1.2610   36.5220 C.3       1 SUB1        0.185
     14 C2         16.0000   -0.6800   35.5100 C.3       1 SUB1        0.134
     15 C3         14.6050   -1.2400   35.7680 C.3       1 SUB1        0.114
     16 C4         14.6550   -2.7660   35.7620 C.3       1 SUB1        0.112
     17 C5         15.7010   -3.2540   36.7620 C.3       1 SUB1        0.113
     18 C6         15.8620   -4.7600   36.7480 C.3       1 SUB1        0.073
     19 O1         18.2680   -0.8220   36.2290 O.3       1 SUB1       -0.365
     20 O2         15.9770    0.7360   35.6220 O.3       1 SUB1       -0.384
     21 O3         13.7100   -0.7840   34.7630 O.3       1 SUB1       -0.386
     22 O4         14.9850   -3.2320   34.4610 O.3       1 SUB1       -0.387
     23 O5         16.9880   -2.6890   36.4490 O.3       1 SUB1       -0.341
     24 O6         16.7250   -5.1870   37.7910 O.3       1 SUB1       -0.392
@<TRIPOS>BOND
     1   13    1 1  
     2   14    2 1  
     3   15    3 1  
     4   16    4 1  
     5   17    5 1  
     6   18    6 1  
     7   18    7 1  
     8   19    8 1  
     9   20    9 1  
    10   21   10 1  
    11   22   11 1  
    12   24   12 1  
    13   23   13 1  
    14   13   19 1  
    15   13   14 1  
    16   14   20 1  
    17   15   14 1  
    18   15   21 1  
    19   16   15 1  
    20   16   22 1  
    21   17   16 1  
    22   17   23 1  
    23   18   17 1  
    24   18   24 1  
@<TRIPOS>SUBSTRUCTURE
     1 SUB1        1 GROUP

