1axz_ligand
  -I-interpret- 

 24 24  0  0  0  0  0  0  0  0999 V2000
   16.7062   -0.9398   37.5353 H   0  0  0  0  0
   16.3180   -0.9573   34.4941 H   0  0  0  0  0
   14.2520   -0.8935   36.7505 H   0  0  0  0  0
   13.6690   -3.1607   36.0484 H   0  0  0  0  0
   15.3945   -2.9354   37.7692 H   0  0  0  0  0
   16.2862   -5.0679   35.7809 H   0  0  0  0  0
   14.8760   -5.2289   36.8819 H   0  0  0  0  0
   18.8785   -1.1848   36.8601 H   0  0  0  0  0
   16.8452    1.0804   35.4482 H   0  0  0  0  0
   14.0146   -1.0776   33.9124 H   0  0  0  0  0
   14.3263   -2.9364   33.8434 H   0  0  0  0  0
   17.5792   -4.7870   37.6775 H   0  0  0  0  0
   16.9890   -1.2610   36.5220 C   0  0  0  0  0
   16.0000   -0.6800   35.5100 C   0  0  0  0  0
   14.6050   -1.2400   35.7680 C   0  0  0  0  0
   14.6550   -2.7660   35.7620 C   0  0  0  0  0
   15.7010   -3.2540   36.7620 C   0  0  0  0  0
   15.8620   -4.7600   36.7480 C   0  0  0  0  0
   18.2680   -0.8220   36.2290 O   0  0  0  0  0
   15.9770    0.7360   35.6220 O   0  0  0  0  0
   13.7100   -0.7840   34.7630 O   0  0  0  0  0
   14.9850   -3.2320   34.4610 O   0  0  0  0  0
   16.9880   -2.6890   36.4490 O   0  0  0  0  0
   16.7250   -5.1870   37.7910 O   0  0  0  0  0
 13  1  1  0  0  0
 14  2  1  0  0  0
 15  3  1  0  0  0
 16  4  1  0  0  0
 17  5  1  0  0  0
 18  6  1  0  0  0
 18  7  1  0  0  0
 19  8  1  0  0  0
 20  9  1  0  0  0
 21 10  1  0  0  0
 22 11  1  0  0  0
 24 12  1  0  0  0
 23 13  1  0  0  0
 13 19  1  0  0  0
 13 14  1  0  0  0
 14 20  1  0  0  0
 15 14  1  0  0  0
 15 21  1  0  0  0
 16 15  1  0  0  0
 16 22  1  0  0  0
 17 16  1  0  0  0
 17 23  1  0  0  0
 18 17  1  0  0  0
 18 24  1  0  0  0
M  END
$$$$
