### 
### Created by X-TOOL on Tue Oct 25 00:11:31 2005
### 

@<TRIPOS>MOLECULE
1t4v_ligand
   55    56     1     0     0
SMALL
GAST_HUCK


@<TRIPOS>ATOM
      1 N1         10.2210  -12.9420   24.4940 N.pl3     1 SUB1       -0.181
      2 C2         11.0380  -11.9630   24.1390 C.cat     1 SUB1        0.412
      3 N3         10.8990  -10.7420   24.6420 N.pl3     1 SUB1       -0.181
      4 N4         11.9500  -12.1800   23.2230 N.pl3     1 SUB1       -0.042
      5 O5         12.9320  -11.3150   22.9410 O.3       1 SUB1       -0.246
      6 C6         12.8750  -10.7330   21.6190 C.3       1 SUB1        0.079
      7 C7         13.4390  -11.7160   20.5680 C.3       1 SUB1        0.001
      8 C8         14.9370  -11.9080   20.6760 C.3       1 SUB1        0.073
      9 O9         15.1530  -12.9450   21.6270 O.3       1 SUB1       -0.317
     10 C10        16.4310  -13.4820   21.6420 C.ar      1 SUB1        0.097
     11 C11        17.4660  -12.9730   20.8410 C.ar      1 SUB1       -0.015
     12 C12        18.7500  -13.5690   20.9110 C.ar      1 SUB1        0.037
     13 C13        18.9680  -14.6250   21.7400 C.ar      1 SUB1       -0.039
     14 C14        17.9680  -15.1090   22.5250 C.ar      1 SUB1        0.042
     15 C15        16.7010  -14.5660   22.4860 C.ar      1 SUB1       -0.013
     16 CL16       20.0380  -12.9820   19.9780 Cl        1 SUB1       -0.072
     17 C17        18.2570  -16.2700   23.3980 C.2       1 SUB1        0.207
     18 O18        17.4590  -17.2030   23.2970 O.2       1 SUB1       -0.384
     19 N19        19.2560  -16.3480   24.3080 N.am      1 SUB1       -0.257
     20 C20        19.2990  -17.5030   25.2690 C.3       1 SUB1        0.062
     21 C21        18.0340  -17.8510   26.0680 C.2       1 SUB1       -0.067
     22 C22        18.0230  -18.3200   27.3020 C.2       1 SUB1       -0.116
     23 C23        19.7830  -15.0070   24.6680 C.3       1 SUB1        0.047
     24 C24        21.3050  -15.1490   24.5490 C.3       1 SUB1       -0.030
     25 C25        21.9790  -14.5420   25.7180 C.3       1 SUB1       -0.051
     26 C26        20.9150  -14.4310   26.7970 C.3       1 SUB1       -0.051
     27 C27        19.6230  -14.9140   26.1870 C.3       1 SUB1       -0.030
     28 H11         9.5023  -12.7777   25.2132 H         1 SUB1        0.194
     29 H12        10.3040  -13.8682   24.0510 H         1 SUB1        0.194
     30 H31        11.5429   -9.9907   24.3558 H         1 SUB1        0.194
     31 H32        10.1473  -10.5462   25.3184 H         1 SUB1        0.194
     32 H41        11.9090  -13.0620   22.6925 H         1 SUB1        0.235
     33 H61        13.4702   -9.8080   21.6051 H         1 SUB1        0.059
     34 H62        11.8290  -10.4998   21.3713 H         1 SUB1        0.059
     35 H71        13.2076  -11.3270   19.5655 H         1 SUB1        0.031
     36 H72        12.9505  -12.6921   20.7043 H         1 SUB1        0.031
     37 H81        15.4142  -10.9772   21.0163 H         1 SUB1        0.061
     38 H82        15.3527  -12.1975   19.6996 H         1 SUB1        0.061
     39 H111       17.2852  -12.1350   20.1776 H         1 SUB1        0.058
     40 H131       19.9486  -15.0856   21.7755 H         1 SUB1        0.058
     41 H151       15.9148  -14.9781   23.1082 H         1 SUB1        0.059
     42 H201       20.0926  -17.2861   25.9992 H         1 SUB1        0.070
     43 H202       19.5698  -18.3968   24.6878 H         1 SUB1        0.070
     44 H211       17.0728  -17.6992   25.5791 H         1 SUB1        0.069
     45 H221       17.0759  -18.5397   27.7926 H         1 SUB1        0.029
     46 H222       18.9610  -18.4872   27.8293 H         1 SUB1        0.029
     47 H231       19.3416  -14.1760   24.0982 H         1 SUB1        0.056
     48 H241       21.6446  -14.6429   23.6333 H         1 SUB1        0.029
     49 H242       21.5652  -16.2165   24.4961 H         1 SUB1        0.029
     50 H251       22.3693  -13.5462   25.4609 H         1 SUB1        0.027
     51 H252       22.8053  -15.1828   26.0593 H         1 SUB1        0.027
     52 H261       20.8126  -13.3850   27.1216 H         1 SUB1        0.027
     53 H262       21.1839  -15.0580   27.6598 H         1 SUB1        0.027
     54 H271       19.3744  -15.9062   26.5915 H         1 SUB1        0.029
     55 H272       18.8159  -14.2067   26.4286 H         1 SUB1        0.029
@<TRIPOS>BOND
     1    1    2 1  
     2    2    3 1  
     3    2    4 1  
     4    4    5 1  
     5    5    6 1  
     6    6    7 1  
     7    7    8 1  
     8    8    9 1  
     9    9   10 1  
    10   10   11 ar 
    11   10   15 ar 
    12   11   12 ar 
    13   12   13 ar 
    14   12   16 1  
    15   13   14 ar 
    16   14   15 ar 
    17   14   17 1  
    18   17   18 2  
    19   17   19 am 
    20   19   20 1  
    21   19   23 1  
    22   20   21 1  
    23   21   22 2  
    24   23   24 1  
    25   23   27 1  
    26   24   25 1  
    27   25   26 1  
    28   26   27 1  
    29    1   28 1  
    30    1   29 1  
    31    3   30 1  
    32    3   31 1  
    33    4   32 1  
    34    6   33 1  
    35    6   34 1  
    36    7   35 1  
    37    7   36 1  
    38    8   37 1  
    39    8   38 1  
    40   11   39 1  
    41   13   40 1  
    42   15   41 1  
    43   20   42 1  
    44   20   43 1  
    45   21   44 1  
    46   22   45 1  
    47   22   46 1  
    48   23   47 1  
    49   24   48 1  
    50   24   49 1  
    51   25   50 1  
    52   25   51 1  
    53   26   52 1  
    54   26   53 1  
    55   27   54 1  
    56   27   55 1  
@<TRIPOS>SUBSTRUCTURE
     1 SUB1        1 GROUP

