1ga8_ligand
  -I-interpret- 

 44 45  0  0  0  0  0  0  0  0999 V2000
   22.0250   53.8210   65.7730 C   0  0  0  0  0
   22.2850   52.4600   65.2110 C   0  0  0  0  0
   22.3020   51.4870   66.3830 C   0  0  0  0  0
   23.4690   51.8960   67.3350 C   0  0  0  0  0
   23.3490   53.1940   67.9100 C   0  0  0  0  0
   24.3150   53.6290   68.7050 C   0  0  0  0  0
   21.7810   55.0960   65.1450 O   0  0  0  0  0
   21.2400   52.1370   64.3110 O   0  0  0  0  0
   22.5470   50.2100   65.8510 O   0  0  0  0  0
   23.0970   54.1580   66.7490 O   0  0  0  0  0
   24.6960   52.8350   69.8700 O   0  0  0  0  0
   21.0220   59.1670   65.1150 C   0  0  0  0  0
   22.2330   58.7350   66.0030 C   0  0  0  0  0
   22.7010   57.3390   65.5460 C   0  0  0  0  0
   21.5020   56.4040   65.7220 C   0  0  0  0  0
   20.2600   56.8190   64.8730 C   0  0  0  0  0
   19.0260   55.9150   65.0600 C   0  0  0  0  0
   20.5870   60.4390   65.5360 O   0  0  0  0  0
   23.2910   59.6660   65.8500 O   0  0  0  0  0
   23.8170   56.9390   66.3790 O   0  0  0  0  0
   19.9380   58.1860   65.2550 O   0  0  0  0  0
   18.1150   56.1080   63.9880 O   0  0  0  0  0
   21.0998   53.6501   66.3428 H   0  0  0  0  0
   23.2511   52.4371   64.6855 H   0  0  0  0  0
   21.3436   51.5042   66.9226 H   0  0  0  0  0
   24.4062   51.8626   66.7602 H   0  0  0  0  0
   23.5147   51.1628   68.1537 H   0  0  0  0  0
   22.4435   53.1745   68.5342 H   0  0  0  0  0
   24.0034   54.6159   69.0778 H   0  0  0  0  0
   25.2161   53.7394   68.0838 H   0  0  0  0  0
   21.3703   51.2565   63.9791 H   0  0  0  0  0
   21.8336   49.9669   65.2727 H   0  0  0  0  0
   25.3967   53.2754   70.3366 H   0  0  0  0  0
   21.3345   59.2161   64.0615 H   0  0  0  0  0
   21.9258   58.6973   67.0585 H   0  0  0  0  0
   23.0135   57.3581   64.4915 H   0  0  0  0  0
   21.2500   56.3353   66.7905 H   0  0  0  0  0
   20.5391   56.7922   63.8094 H   0  0  0  0  0
   18.5303   56.1672   66.0090 H   0  0  0  0  0
   19.3454   54.8626   65.0814 H   0  0  0  0  0
   21.2970   61.0630   65.4402 H   0  0  0  0  0
   24.0312   59.3922   66.3788 H   0  0  0  0  0
   24.0860   56.0585   66.1447 H   0  0  0  0  0
   17.3584   55.5471   64.1120 H   0  0  0  0  0
  1  2  1  0  0  0
  7  1  1  0  0  0
  1 10  1  0  0  0
  2  3  1  0  0  0
  2  8  1  0  0  0
  3  4  1  0  0  0
  3  9  1  0  0  0
  5  4  1  0  0  0
  5  6  1  0  0  0
 10  5  1  0  0  0
  6 11  1  0  0  0
 15  7  1  0  0  0
 13 12  1  0  0  0
 12 18  1  0  0  0
 12 21  1  0  0  0
 14 13  1  0  0  0
 13 19  1  0  0  0
 14 15  1  0  0  0
 14 20  1  0  0  0
 15 16  1  0  0  0
 16 17  1  0  0  0
 16 21  1  0  0  0
 17 22  1  0  0  0
  1 23  1  0  0  0
  2 24  1  0  0  0
  3 25  1  0  0  0
  4 26  1  0  0  0
  4 27  1  0  0  0
  5 28  1  0  0  0
  6 29  1  0  0  0
  6 30  1  0  0  0
  8 31  1  0  0  0
  9 32  1  0  0  0
 11 33  1  0  0  0
 12 34  1  0  0  0
 13 35  1  0  0  0
 14 36  1  0  0  0
 15 37  1  0  0  0
 16 38  1  0  0  0
 17 39  1  0  0  0
 17 40  1  0  0  0
 18 41  1  0  0  0
 19 42  1  0  0  0
 20 43  1  0  0  0
 22 44  1  0  0  0
M  END
$$$$
