### 
### Created by X-TOOL on Tue Oct 25 00:10:50 2005
### 

@<TRIPOS>MOLECULE
1v1m_ligand
   42    43     1     0     0
SMALL
GAST_HUCK


@<TRIPOS>ATOM
      1 N1         77.0360    0.6090   11.1920 N.ar      1 SUB1       -0.294
      2 C2         77.2770    1.7880   11.7620 C.ar      1 SUB1        0.076
      3 C2A        77.4390    1.9590   13.2600 C.3       1 SUB1       -0.003
      4 N3         77.3610    2.8970   10.9710 N.ar      1 SUB1       -0.261
      5 C4         77.2890    2.8230    9.6240 C.ar      1 SUB1        0.122
      6 N4         77.4370    3.9870    8.9510 N.pl3     1 SUB1       -0.319
      7 C5         77.0120    1.5830    9.0030 C.ar      1 SUB1        0.033
      8 C6         76.9010    0.4930    9.8570 C.ar      1 SUB1        0.007
      9 C35        76.8960    1.3740    7.4660 C.3       1 SUB1        0.056
     10 N3         75.6220    1.9350    7.0040 N.2       1 SUB1       -0.275
     11 C2         75.7320    3.2610    6.3570 C.2       1 SUB1        0.135
     12 S1         73.9910    3.5920    5.9110 S.3       1 SUB1        0.116
     13 C5         73.3250    2.1140    6.5260 C.2       1 SUB1        0.173
     14 C4         74.3850    1.3610    7.0790 C.2       1 SUB1        0.131
     15 C4A        74.1640   -0.0290    7.6780 C.3       1 SUB1        0.023
     16 C5A        71.8700    1.8700    6.4450 C.3       1 SUB1        0.083
     17 C5B        71.0800    2.9800    7.2100 C.3       1 SUB1        0.111
     18 O5G        69.6840    2.6740    7.1470 O.3       1 SUB1       -0.249
     19 P1         68.6020    3.7010    7.6550 P.3       1 SUB1        0.373
     20 O11        68.7530    5.0260    6.7070 O.3       1 SUB1       -0.257
     21 O12        69.0390    4.1450    9.0110 O.co2     1 SUB1       -0.457
     22 O13        67.2820    3.0810    7.5180 O.co2     1 SUB1       -0.457
     23 P2         68.4430    5.1190    5.0550 P.3       1 SUB1        0.158
     24 O21        69.8320    4.8360    4.3350 O.co2     1 SUB1       -0.616
     25 O22        67.3170    4.0740    4.7440 O.co2     1 SUB1       -0.616
     26 O23        67.9690    6.5360    4.8620 O.co2     1 SUB1       -0.616
     27 H31        77.3460    0.9800   13.7529 H         1 SUB1        0.045
     28 H32        76.6586    2.6356   13.6384 H         1 SUB1        0.045
     29 H33        78.4299    2.3852   13.4754 H         1 SUB1        0.045
     30 H61        77.3921    3.9963    7.9220 H         1 SUB1        0.179
     31 H62        77.5946    4.8641    9.4675 H         1 SUB1        0.179
     32 H81        76.6988   -0.4845    9.4344 H         1 SUB1        0.079
     33 H91        76.9308    0.2989    7.2361 H         1 SUB1        0.056
     34 H92        77.7289    1.8843    6.9602 H         1 SUB1        0.056
     35 H111       76.6152    3.8760    6.1908 H         1 SUB1        0.166
     36 H151       73.0945   -0.2821    7.6323 H         1 SUB1        0.060
     37 H152       74.4974   -0.0338    8.7262 H         1 SUB1        0.060
     38 H153       74.7411   -0.7707    7.1063 H         1 SUB1        0.060
     39 H161       71.6426    0.8914    6.8928 H         1 SUB1        0.077
     40 H162       71.5621    1.8705    5.3890 H         1 SUB1        0.077
     41 H171       71.2664    3.9573    6.7409 H         1 SUB1        0.069
     42 H172       71.4056    3.0093    8.2603 H         1 SUB1        0.069
@<TRIPOS>BOND
     1    1    2 ar 
     2    1    8 ar 
     3    2    3 1  
     4    2    4 ar 
     5    4    5 ar 
     6    5    6 1  
     7    5    7 ar 
     8    7    8 ar 
     9    7    9 1  
    10    9   10 1  
    11   10   11 2  
    12   10   14 1  
    13   11   12 1  
    14   12   13 1  
    15   13   14 2  
    16   13   16 1  
    17   14   15 1  
    18   16   17 1  
    19   17   18 1  
    20   18   19 1  
    21   19   20 1  
    22   19   21 2  
    23   19   22 2  
    24   20   23 1  
    25   23   24 2  
    26   23   25 2  
    27   23   26 2  
    28    3   27 1  
    29    3   28 1  
    30    3   29 1  
    31    6   30 1  
    32    6   31 1  
    33    8   32 1  
    34    9   33 1  
    35    9   34 1  
    36   11   35 1  
    37   15   36 1  
    38   15   37 1  
    39   15   38 1  
    40   16   39 1  
    41   16   40 1  
    42   17   41 1  
    43   17   42 1  
@<TRIPOS>SUBSTRUCTURE
     1 SUB1        1 GROUP

