1w8l_ligand
  -I-interpret- 

 25 25  0  0  0  0  0  0  0  0999 V2000
    1.4880   58.6170   54.3490 C   0  0  0  0  0
    2.4200   57.4550   54.5740 C   0  0  0  0  0
    3.8500   57.9340   54.4520 C   0  0  0  0  0
    2.1810   56.8540   55.9540 C   0  0  0  0  0
    3.1800   55.7490   56.2560 C   0  0  0  0  0
    4.7750   56.8440   54.7510 N   0  0  0  0  0
    4.6170   56.2190   56.0630 C   0  0  0  0  0
    5.7530   57.0940   52.4950 C   0  0  0  0  0
    5.7070   56.4400   53.8730 C   0  0  0  0  0
    6.4980   55.5320   54.1010 O   0  0  0  0  0
    1.6681   59.0436   53.3512 H   0  0  0  0  0
    1.6691   59.3859   55.1145 H   0  0  0  0  0
    0.4464   58.2701   54.4169 H   0  0  0  0  0
    2.2304   56.6859   53.8108 H   0  0  0  0  0
    4.0187   58.7582   55.1607 H   0  0  0  0  0
    4.0276   58.2900   53.4265 H   0  0  0  0  0
    1.1637   56.4374   55.9921 H   0  0  0  0  0
    2.2819   57.6450   56.7117 H   0  0  0  0  0
    2.9887   54.9015   55.5814 H   0  0  0  0  0
    3.0482   55.4247   57.2988 H   0  0  0  0  0
    5.2942   55.3554   56.1373 H   0  0  0  0  0
    4.8678   56.9501   56.8456 H   0  0  0  0  0
    6.5687   56.6500   51.9055 H   0  0  0  0  0
    5.9277   58.1742   52.6074 H   0  0  0  0  0
    4.7958   56.9291   51.9787 H   0  0  0  0  0
  1  2  1  0  0  0
  2  3  1  0  0  0
  2  4  1  0  0  0
  3  6  1  0  0  0
  4  5  1  0  0  0
  5  7  1  0  0  0
  6  7  1  0  0  0
  6  9  1  0  0  0
  9  8  1  0  0  0
  9 10  2  0  0  0
  1 11  1  0  0  0
  1 12  1  0  0  0
  1 13  1  0  0  0
  2 14  1  0  0  0
  3 15  1  0  0  0
  3 16  1  0  0  0
  4 17  1  0  0  0
  4 18  1  0  0  0
  5 19  1  0  0  0
  5 20  1  0  0  0
  7 21  1  0  0  0
  7 22  1  0  0  0
  8 23  1  0  0  0
  8 24  1  0  0  0
  8 25  1  0  0  0
M  END
$$$$
