### 
### Created by X-TOOL on Mon Oct 24 22:50:40 2005
### 

@<TRIPOS>MOLECULE
1o3p_ligand
   46    49     1     0     0
SMALL
GAST_HUCK


@<TRIPOS>ATOM
      1 C1          8.7880    1.4610   24.6060 C.ar      1 SUB1        0.171
      2 C2          9.5720    1.3020   23.4300 C.ar      1 SUB1       -0.020
      3 C3         10.2020    2.3670   22.8100 C.ar      1 SUB1       -0.036
      4 C4          9.9720    3.6110   23.3310 C.ar      1 SUB1        0.081
      5 C5          9.2090    3.8120   24.4350 C.ar      1 SUB1        0.034
      6 C6          8.5920    2.7660   25.0710 C.ar      1 SUB1       -0.008
      7 C7          8.1880    0.3730   25.2350 C.cat     1 SUB1        0.310
      8 N1          7.7520    0.4860   26.4730 N.pl3     1 SUB1       -0.201
      9 N2          8.0910   -0.7720   24.6100 N.pl3     1 SUB1       -0.201
     10 N3         10.3730    4.7820   22.9850 N.pl3     1 SUB1       -0.251
     11 N4          9.1170    5.0700   24.7840 N.2       1 SUB1       -0.311
     12 C8          9.8770    5.6220   23.8530 C.2       1 SUB1        0.133
     13 C1'        10.1130    6.9650   23.7750 C.ar      1 SUB1        0.057
     14 C2'         9.7870    7.8200   24.8490 C.ar      1 SUB1       -0.063
     15 C3'        10.0400    9.1930   24.7850 C.ar      1 SUB1       -0.076
     16 C4'        10.6290    9.7250   23.6570 C.ar      1 SUB1       -0.037
     17 C5'        10.9610    8.8870   22.5700 C.ar      1 SUB1        0.127
     18 O5'        11.5570    9.3300   21.3960 O.3       1 SUB1       -0.317
     19 C6'        10.7210    7.5300   22.6460 C.ar      1 SUB1        0.138
     20 O6'        11.1000    6.7680   21.5450 O.3       1 SUB1       -0.330
     21 C1''       11.8090   11.0280   19.7310 C.3       1 SUB1       -0.023
     22 C2''       11.8600   10.7160   21.2250 C.3       1 SUB1        0.079
     23 C3''       13.2910   10.8790   21.6920 C.3       1 SUB1       -0.023
     24 C4''       14.1130   11.3710   20.5140 C.3       1 SUB1       -0.050
     25 C5''       13.2440   11.2120   19.2770 C.3       1 SUB1       -0.050
     26 H21         9.7460    0.3170   23.0410 H         1 SUB1        0.059
     27 H31        10.8160    2.2530   21.9280 H         1 SUB1        0.055
     28 H61         7.9880    2.9730   25.9480 H         1 SUB1        0.059
     29 H81         7.8470    1.3630   26.9570 H         1 SUB1        0.192
     30 H82         7.3230   -0.2440   27.0080 H         1 SUB1        0.192
     31 H91         8.4790   -0.8670   23.6860 H         1 SUB1        0.192
     32 H92         7.7370   -1.6000   25.0330 H         1 SUB1        0.192
     33 H101       10.9470    5.0650   22.2400 H         1 SUB1        0.230
     34 H141        9.3280    7.4170   25.7440 H         1 SUB1        0.054
     35 H151        9.7820    9.8360   25.6150 H         1 SUB1        0.051
     36 H161       10.8130   10.7830   23.6280 H         1 SUB1        0.054
     37 H221       11.1590   11.3490   21.7600 H         1 SUB1        0.064
     38 H231       13.3150   11.6290   22.4630 H         1 SUB1        0.029
     39 H232       13.6920    9.9490   22.0750 H         1 SUB1        0.029
     40 H241       15.0200   10.7900   20.4110 H         1 SUB1        0.027
     41 H242       14.3660   12.4060   20.6530 H         1 SUB1        0.027
     42 H251       13.5670   10.3310   18.7440 H         1 SUB1        0.027
     43 H252       13.3320   12.0730   18.6370 H         1 SUB1        0.027
     44 H211       11.3210   10.2350   19.1810 H         1 SUB1        0.029
     45 H212       11.2500   11.9450   19.5790 H         1 SUB1        0.029
     46 H201       12.0353    6.8587   21.4054 H         1 SUB1        0.248
@<TRIPOS>BOND
     1    1    2 ar 
     2    6    1 ar 
     3    1    7 1  
     4    3    2 ar 
     5    2   26 1  
     6    4    3 ar 
     7    3   27 1  
     8    5    4 ar 
     9   10    4 1  
    10    5    6 ar 
    11   11    5 1  
    12    6   28 1  
    13    7    8 1  
    14    7    9 1  
    15    8   29 1  
    16    8   30 1  
    17    9   31 1  
    18    9   32 1  
    19   12   10 1  
    20   10   33 1  
    21   12   11 2  
    22   13   12 1  
    23   13   14 ar 
    24   19   13 ar 
    25   15   14 ar 
    26   14   34 1  
    27   16   15 ar 
    28   15   35 1  
    29   17   16 ar 
    30   16   36 1  
    31   18   17 1  
    32   17   19 ar 
    33   22   18 1  
    34   19   20 1  
    35   23   22 1  
    36   22   37 1  
    37   24   23 1  
    38   23   38 1  
    39   23   39 1  
    40   25   24 1  
    41   24   40 1  
    42   24   41 1  
    43   25   42 1  
    44   25   43 1  
    45   21   45 1  
    46   21   44 1  
    47   25   21 1  
    48   22   21 1  
    49   20   46 1  
@<TRIPOS>SUBSTRUCTURE
     1 SUB1        1 GROUP

