### 
### Created by X-TOOL on Mon Oct 24 22:41:40 2005
### 

@<TRIPOS>MOLECULE
1c88_ligand
   27    28     1     0     0
SMALL
GAST_HUCK


@<TRIPOS>ATOM
      1 N1         45.3360   10.3740   -0.2750 N.4       1 SUB1        0.241
      2 C2         45.8220   10.6290    1.1010 C.3       1 SUB1        0.009
      3 C3         45.3220   11.9950    1.5280 C.2       1 SUB1        0.076
      4 C4         44.5870   12.8170    0.7260 C.2       1 SUB1       -0.010
      5 C5         43.9230   12.4140   -0.5600 C.3       1 SUB1        0.006
      6 C6         43.9320   10.8990   -0.6460 C.3       1 SUB1       -0.028
      7 S13        45.8010   12.7620    3.0770 S.3       1 SUB1        0.073
      8 C14        44.9160   14.1380    2.5710 C.2       1 SUB1        0.251
      9 C15        44.3520   14.0960    1.3660 C.2       1 SUB1        0.124
     10 C16        43.6680   15.2970    0.8590 C.2       1 SUB1        0.146
     11 O17        43.3030   16.2120    1.5490 O.co2     1 SUB1       -0.495
     12 O18        43.4890   15.2180   -0.4400 O.co2     1 SUB1       -0.495
     13 N19        44.8140   15.2810    3.4350 N.am      1 SUB1       -0.184
     14 C20        45.4360   15.4480    4.6130 C.2       1 SUB1        0.112
     15 C21        45.2080   16.8310    5.1820 C.2       1 SUB1       -0.089
     16 O22        46.0190   17.4230    5.8110 O.co2     1 SUB1       -0.694
     17 O23        43.9100   17.2990    5.0610 O.co2     1 SUB1       -0.694
     18 O24        46.0470   14.5650    5.2640 O.2       1 SUB1       -0.482
     19 H11        45.9940   10.7974   -0.9105 H         1 SUB1        0.203
     20 H12        45.3307    9.3755   -0.4127 H         1 SUB1        0.203
     21 H21        46.9217   10.6119    1.1178 H         1 SUB1        0.099
     22 H22        45.4328    9.8589    1.7832 H         1 SUB1        0.099
     23 H51        44.4742   12.8382   -1.4122 H         1 SUB1        0.040
     24 H52        42.8862   12.7812   -0.5744 H         1 SUB1        0.040
     25 H61        43.1893   10.4871    0.0531 H         1 SUB1        0.083
     26 H62        43.6826   10.5879   -1.6712 H         1 SUB1        0.083
     27 H131       44.2212   16.0259    3.1288 H         1 SUB1        0.284
@<TRIPOS>BOND
     1    1    6 1  
     2    1    2 1  
     3    2    3 1  
     4    3    7 1  
     5    3    4 2  
     6    4    9 1  
     7    4    5 1  
     8    5    6 1  
     9    9   10 1  
    10    9    8 2  
    11    8   13 am 
    12    8    7 1  
    13   13   14 am 
    14   14   18 2  
    15   14   15 1  
    16   15   17 2  
    17   15   16 2  
    18   10   12 2  
    19   10   11 2  
    20    1   19 1  
    21    1   20 1  
    22    2   21 1  
    23    2   22 1  
    24    5   23 1  
    25    5   24 1  
    26    6   25 1  
    27    6   26 1  
    28   13   27 1  
@<TRIPOS>SUBSTRUCTURE
     1 SUB1        1 GROUP

