1hvi_ligand
  -I-interpret- 

116119  0  0  0  0  0  0  0  0999 V2000
    3.4840    3.3320   10.7440 C   0  0  0  0  0
    3.3360    4.0240   11.7300 O   0  0  0  0  0
    3.9860    3.8340    9.5980 N   0  0  0  0  0
    4.1860    3.0150    8.3970 C   0  0  0  0  0
    4.3660    5.2480    9.5330 C   0  0  0  0  0
    5.8600    5.4890    9.5740 C   0  0  0  0  0
    6.5950    5.5550    8.3900 C   0  0  0  0  0
    6.4040    5.6810   10.7780 N   0  0  0  0  0
    7.9510    5.8620    8.4900 C   0  0  0  0  0
    7.7020    5.9660   10.8620 C   0  0  0  0  0
    8.5250    6.0770    9.7510 C   0  0  0  0  0
    3.1650    2.0470   10.7480 N   0  0  0  0  0
    2.7860    1.2980   11.9600 C   0  0  0  0  0
    3.9320    0.3780   12.3800 C   0  0  0  0  0
    4.0280   -0.7680   11.9740 O   0  0  0  0  0
    1.4690    0.5260   11.7400 C   0  0  0  0  0
    1.0410   -0.2680   12.9880 C   0  0  0  0  0
    0.3340    1.4570   11.2930 C   0  0  0  0  0
    4.8470    0.9370   13.1830 N   0  0  0  0  0
    6.1390    0.2940   13.5540 C   0  0  0  0  0
    7.2770    1.2140   13.0810 C   0  0  0  0  0
    7.5800    1.1300   11.6220 C   0  0  0  0  0
    7.1840    2.1490   10.7610 C   0  0  0  0  0
    7.4540    2.0420    9.3930 C   0  0  0  0  0
    8.1290    0.9290    8.8970 C   0  0  0  0  0
    8.5340   -0.0800    9.7830 C   0  0  0  0  0
    8.2550    0.0170   11.1470 C   0  0  0  0  0
    6.2460    0.1640   15.0760 C   0  0  0  0  0
    7.4730   -0.4920   15.3580 O   0  0  0  0  0
    5.1290   -0.1720   17.2130 O   0  0  0  0  0
    5.0120   -0.4270   15.8130 C   0  0  0  0  0
    5.7540   -2.8020   16.2090 N   0  0  0  0  0
    4.7380   -1.9260   15.5940 C   0  0  0  0  0
    3.3490   -2.3270   16.1270 C   0  0  0  0  0
    3.0720   -3.8220   16.0900 C   0  0  0  0  0
    3.2530   -4.6130   17.2380 C   0  0  0  0  0
    3.0440   -6.0000   17.1780 C   0  0  0  0  0
    2.6440   -6.6190   15.9850 C   0  0  0  0  0
    2.4420   -5.8380   14.8450 C   0  0  0  0  0
    2.6580   -4.4490   14.8990 C   0  0  0  0  0
    6.9100   -5.9190   16.6840 N   0  0  0  0  0
    7.4180   -4.5880   16.4020 C   0  0  0  0  0
    6.4320   -3.7550   15.5590 C   0  0  0  0  0
    6.3130   -3.9440   14.3650 O   0  0  0  0  0
    8.8090   -4.6600   15.7320 C   0  0  0  0  0
    9.3660   -3.2530   15.4630 C   0  0  0  0  0
    9.8170   -5.4220   16.5890 C   0  0  0  0  0
    6.7680   -6.3930   17.9220 C   0  0  0  0  0
    7.1430   -5.7640   18.9010 O   0  0  0  0  0
    6.2260   -7.6350   18.0230 N   0  0  0  0  0
    5.7910   -8.3920   16.8390 C   0  0  0  0  0
    5.9940   -8.2530   19.3450 C   0  0  0  0  0
    4.6440   -7.8700   19.9060 C   0  0  0  0  0
    3.5550   -8.7340   19.7710 C   0  0  0  0  0
    4.5550   -6.6680   20.5110 N   0  0  0  0  0
    2.3170   -8.3440   20.2820 C   0  0  0  0  0
    3.3550   -6.2960   20.9830 C   0  0  0  0  0
    2.2110   -7.0980   20.9010 C   0  0  0  0  0
    6.6540   -8.7520   16.2790 H   0  0  0  0  0
    6.7620   -7.9480   20.0510 H   0  0  0  0  0
    6.0670   -9.3370   19.2670 H   0  0  0  0  0
    3.6670   -9.6630   19.2440 H   0  0  0  0  0
    1.4460   -8.9840   20.1860 H   0  0  0  0  0
    3.2710   -5.3230   21.4500 H   0  0  0  0  0
    1.2670   -6.7480   21.2990 H   0  0  0  0  0
    5.1840   -7.7760   16.1760 H   0  0  0  0  0
    5.1850   -9.2540   17.1200 H   0  0  0  0  0
    4.6670    3.5800    7.5980 H   0  0  0  0  0
    4.8100    2.1490    8.6140 H   0  0  0  0  0
    3.2250    2.6660    8.0230 H   0  0  0  0  0
    3.9070    5.8240   10.3340 H   0  0  0  0  0
    3.9590    5.6750    8.6170 H   0  0  0  0  0
    6.1390    5.3370    7.4440 H   0  0  0  0  0
    8.5690    5.9150    7.5980 H   0  0  0  0  0
    8.1280    6.1120   11.8470 H   0  0  0  0  0
    9.5760    6.3130    9.8680 H   0  0  0  0  0
    3.2410    1.5760    9.8660 H   0  0  0  0  0
    2.6220    1.9900   12.7850 H   0  0  0  0  0
    1.6330   -0.1910   10.9320 H   0  0  0  0  0
    0.0660   -0.7310   12.8470 H   0  0  0  0  0
    1.7500   -1.0600   13.2330 H   0  0  0  0  0
    0.9580    0.3830   13.8570 H   0  0  0  0  0
    0.1030    2.1950   12.0630 H   0  0  0  0  0
    0.5880    1.9950   10.3780 H   0  0  0  0  0
   -0.5720    0.8880   11.0900 H   0  0  0  0  0
    4.6790    1.8790   13.4750 H   0  0  0  0  0
    6.2170   -0.7010   13.1030 H   0  0  0  0  0
    8.2200    1.0290   13.5920 H   0  0  0  0  0
    7.0320    2.2430   13.3450 H   0  0  0  0  0
    6.6550    3.0070   11.1510 H   0  0  0  0  0
    7.1430    2.8170    8.7110 H   0  0  0  0  0
    8.3320    0.8460    7.8380 H   0  0  0  0  0
    9.0640   -0.9400    9.4020 H   0  0  0  0  0
    8.5580   -0.7590   11.8330 H   0  0  0  0  0
    6.3900    1.1760   15.4620 H   0  0  0  0  0
    7.5716   -0.5899   16.3099 H   0  0  0  0  0
    5.3009    0.7672   17.3546 H   0  0  0  0  0
    4.1260    0.1370   15.5160 H   0  0  0  0  0
    5.8590   -2.7960   17.1990 H   0  0  0  0  0
    4.7260   -2.0840   14.5140 H   0  0  0  0  0
    2.5650   -1.8050   15.5750 H   0  0  0  0  0
    3.2440   -1.9970   17.1600 H   0  0  0  0  0
    3.5760   -4.1550   18.1640 H   0  0  0  0  0
    3.1970   -6.5930   18.0600 H   0  0  0  0  0
    2.4990   -7.6920   15.9490 H   0  0  0  0  0
    2.1250   -6.2980   13.9220 H   0  0  0  0  0
    2.5120   -3.8460   14.0140 H   0  0  0  0  0
    6.6200   -6.5240   15.9430 H   0  0  0  0  0
    7.5360   -4.0350   17.3340 H   0  0  0  0  0
    8.7090   -5.1820   14.7790 H   0  0  0  0  0
   10.3760   -3.3020   15.0560 H   0  0  0  0  0
    8.7540   -2.7130   14.7430 H   0  0  0  0  0
    9.4060   -2.6640   16.3800 H   0  0  0  0  0
    9.9380   -4.9490   17.5650 H   0  0  0  0  0
    9.5000   -6.4520   16.7480 H   0  0  0  0  0
   10.7940   -5.4540   16.1060 H   0  0  0  0  0
  1  2  2  0  0  0
  1  3  1  0  0  0
 12  1  1  0  0  0
  3  4  1  0  0  0
  3  5  1  0  0  0
  4 68  1  0  0  0
  4 69  1  0  0  0
  4 70  1  0  0  0
  5  6  1  0  0  0
  5 71  1  0  0  0
  5 72  1  0  0  0
  6  7  4  0  0  0
  6  8  4  0  0  0
  7  9  4  0  0  0
  7 73  1  0  0  0
  8 10  4  0  0  0
  9 11  4  0  0  0
  9 74  1  0  0  0
 10 11  4  0  0  0
 10 75  1  0  0  0
 11 76  1  0  0  0
 13 12  1  0  0  0
 12 77  1  0  0  0
 14 13  1  0  0  0
 13 16  1  0  0  0
 13 78  1  0  0  0
 14 15  2  0  0  0
 19 14  1  0  0  0
 16 17  1  0  0  0
 16 18  1  0  0  0
 16 79  1  0  0  0
 17 80  1  0  0  0
 17 81  1  0  0  0
 17 82  1  0  0  0
 18 83  1  0  0  0
 18 84  1  0  0  0
 18 85  1  0  0  0
 20 19  1  0  0  0
 19 86  1  0  0  0
 20 21  1  0  0  0
 28 20  1  0  0  0
 20 87  1  0  0  0
 21 22  1  0  0  0
 21 88  1  0  0  0
 21 89  1  0  0  0
 22 23  4  0  0  0
 22 27  4  0  0  0
 23 24  4  0  0  0
 23 90  1  0  0  0
 24 25  4  0  0  0
 24 91  1  0  0  0
 26 25  4  0  0  0
 25 92  1  0  0  0
 27 26  4  0  0  0
 26 93  1  0  0  0
 27 94  1  0  0  0
 28 29  1  0  0  0
 31 28  1  0  0  0
 28 95  1  0  0  0
 29 96  1  0  0  0
 31 33  1  0  0  0
 31 98  1  0  0  0
 33 34  1  0  0  0
 33100  1  0  0  0
 34 35  1  0  0  0
 34101  1  0  0  0
 34102  1  0  0  0
 35 36  4  0  0  0
 35 40  4  0  0  0
 36 37  4  0  0  0
 36103  1  0  0  0
 37 38  4  0  0  0
 37104  1  0  0  0
 39 38  4  0  0  0
 38105  1  0  0  0
 40 39  4  0  0  0
 39106  1  0  0  0
 40107  1  0  0  0
 42 41  1  0  0  0
 41 48  1  0  0  0
 43 42  1  0  0  0
 42 45  1  0  0  0
 43 44  2  0  0  0
 45 46  1  0  0  0
 45 47  1  0  0  0
 48 49  2  0  0  0
 48 50  1  0  0  0
 50 51  1  0  0  0
 51 59  1  0  0  0
 51 66  1  0  0  0
 51 67  1  0  0  0
 50 52  1  0  0  0
 52 53  1  0  0  0
 52 60  1  0  0  0
 52 61  1  0  0  0
 53 54  4  0  0  0
 53 55  4  0  0  0
 54 56  4  0  0  0
 54 62  1  0  0  0
 55 57  4  0  0  0
 56 58  4  0  0  0
 56 63  1  0  0  0
 57 58  4  0  0  0
 57 64  1  0  0  0
 58 65  1  0  0  0
 47116  1  0  0  0
 47115  1  0  0  0
 47114  1  0  0  0
 46113  1  0  0  0
 46112  1  0  0  0
 46111  1  0  0  0
 45110  1  0  0  0
 42109  1  0  0  0
 41108  1  0  0  0
 32 99  1  0  0  0
 30 97  1  0  0  0
 32 43  1  0  0  0
 33 32  1  0  0  0
 31 30  1  0  0  0
M  END
$$$$
