### 
### Created by X-TOOL on Mon Oct 24 23:44:38 2005
### 

@<TRIPOS>MOLECULE
1ajx_ligand
   74    78     1     0     0
SMALL
GAST_HUCK


@<TRIPOS>ATOM
      1 N01        11.7410   23.3430    5.9890 N.am      1 SUB1       -0.240
      2 C02        12.2650   22.0280    6.0510 C.2       1 SUB1        0.267
      3 N03        13.5070   21.7390    5.6380 N.am      1 SUB1       -0.240
      4 C04        14.6520   22.6630    5.7600 C.3       1 SUB1        0.103
      5 C05        14.5740   23.8290    4.6740 C.3       1 SUB1        0.109
      6 C06        13.4310   24.8510    4.9420 C.3       1 SUB1        0.109
      7 C07        11.9940   24.2680    4.8390 C.3       1 SUB1        0.103
      8 C08        10.4530   23.6120    6.6690 C.3       1 SUB1        0.068
      9 C09        10.2850   24.9540    7.2810 C.ar      1 SUB1       -0.021
     10 C10         9.1800   25.7370    6.9680 C.ar      1 SUB1       -0.058
     11 C11         9.0390   27.0110    7.5220 C.ar      1 SUB1       -0.068
     12 C12        10.0110   27.5260    8.3960 C.ar      1 SUB1       -0.069
     13 C13        11.1000   26.7320    8.6960 C.ar      1 SUB1       -0.068
     14 C14        11.2270   25.4360    8.1300 C.ar      1 SUB1       -0.058
     15 O15        11.5490   21.0910    6.5030 O.2       1 SUB1       -0.400
     16 C16        13.9250   20.3890    5.4920 C.3       1 SUB1        0.068
     17 C17        14.8410   19.9560    4.3600 C.ar      1 SUB1       -0.021
     18 C18        16.1120   19.3650    4.6200 C.ar      1 SUB1       -0.058
     19 C19        16.8900   18.9310    3.5390 C.ar      1 SUB1       -0.068
     20 C20        16.4590   19.0590    2.2170 C.ar      1 SUB1       -0.069
     21 C21        15.2220   19.6500    1.9380 C.ar      1 SUB1       -0.068
     22 C22        14.3990   20.0990    3.0000 C.ar      1 SUB1       -0.058
     23 C23        14.6030   23.2930    7.1160 C.3       1 SUB1        0.096
     24 O24        14.7440   22.4950    8.3370 O.3       1 SUB1       -0.316
     25 C25        15.7820   21.7740    8.6600 C.ar      1 SUB1        0.091
     26 C26        15.6250   20.6030    9.4660 C.ar      1 SUB1       -0.033
     27 C27        16.7780   19.8550    9.8220 C.ar      1 SUB1       -0.071
     28 C28        18.0690   20.2700    9.3680 C.ar      1 SUB1       -0.073
     29 C29        18.2260   21.4180    8.5550 C.ar      1 SUB1       -0.071
     30 C30        17.0840   22.1670    8.2090 C.ar      1 SUB1       -0.033
     31 O31        15.7460   24.5390    4.7420 O.3       1 SUB1       -0.387
     32 O32        13.5500   25.8400    3.9840 O.3       1 SUB1       -0.387
     33 C33        11.8320   23.4520    3.5150 C.3       1 SUB1        0.096
     34 O34        10.4610   23.1350    3.0630 O.3       1 SUB1       -0.316
     35 C35         9.5240   24.0830    2.7470 C.ar      1 SUB1        0.091
     36 C36         9.9090   25.3270    2.2310 C.ar      1 SUB1       -0.033
     37 C37         8.9450   26.3100    1.8800 C.ar      1 SUB1       -0.071
     38 C38         7.5650   26.0600    2.0520 C.ar      1 SUB1       -0.073
     39 C39         7.1750   24.8090    2.5880 C.ar      1 SUB1       -0.071
     40 C40         8.1710   23.8260    2.9270 C.ar      1 SUB1       -0.033
     41 H41        15.5909   22.1039    5.6343 H         1 SUB1        0.061
     42 H51        14.4445   23.3863    3.6754 H         1 SUB1        0.064
     43 H61        13.5655   25.2765    5.9474 H         1 SUB1        0.064
     44 H71        11.2651   25.0917    4.8569 H         1 SUB1        0.061
     45 H81        10.3366   22.8652    7.4682 H         1 SUB1        0.068
     46 H82         9.6517   23.4825    5.9266 H         1 SUB1        0.068
     47 H101        8.4240   25.3568    6.2905 H         1 SUB1        0.056
     48 H111        8.1696   27.6095    7.2749 H         1 SUB1        0.060
     49 H121        9.9090   28.5175    8.8222 H         1 SUB1        0.056
     50 H131       11.8648   27.1013    9.3696 H         1 SUB1        0.060
     51 H141       12.0867   24.8246    8.3792 H         1 SUB1        0.056
     52 H161       13.0078   19.7897    5.3944 H         1 SUB1        0.068
     53 H162       14.4400   20.1216    6.4264 H         1 SUB1        0.068
     54 H181       16.4703   19.2534    5.6370 H         1 SUB1        0.056
     55 H191       17.8569   18.4817    3.7349 H         1 SUB1        0.060
     56 H201       17.0831   18.7003    1.4065 H         1 SUB1        0.056
     57 H211       14.8939   19.7641    0.9111 H         1 SUB1        0.060
     58 H221       13.4366   20.5501    2.7870 H         1 SUB1        0.056
     59 H231       13.6295   23.8001    7.1875 H         1 SUB1        0.064
     60 H232       15.4089   24.0413    7.1397 H         1 SUB1        0.064
     61 H261       14.6417   20.2917    9.7996 H         1 SUB1        0.054
     62 H271       16.6797   18.9687   10.4384 H         1 SUB1        0.059
     63 H281       18.9431   19.6950    9.6516 H         1 SUB1        0.052
     64 H291       19.2077   21.7157    8.2047 H         1 SUB1        0.059
     65 H301       17.1918   23.0526    7.5932 H         1 SUB1        0.054
     66 H311       15.7265   25.2422    4.1035 H         1 SUB1        0.210
     67 H321       14.4008   26.2552    4.0631 H         1 SUB1        0.210
     68 H331       12.3612   22.4973    3.6514 H         1 SUB1        0.064
     69 H332       12.3164   24.0285    2.7132 H         1 SUB1        0.064
     70 H361       10.9626   25.5439    2.0969 H         1 SUB1        0.054
     71 H371        9.2716   27.2615    1.4761 H         1 SUB1        0.059
     72 H381        6.8257   26.8051    1.7812 H         1 SUB1        0.052
     73 H391        6.1246   24.5908    2.7435 H         1 SUB1        0.059
     74 H401        7.8595   22.8689    3.3296 H         1 SUB1        0.054
@<TRIPOS>BOND
     1    1    8 1  
     2    1    7 1  
     3    1    2 am 
     4    2   15 2  
     5    2    3 am 
     6    3   16 1  
     7    3    4 1  
     8    4   23 1  
     9    4    5 1  
    10    5   31 1  
    11    5    6 1  
    12    6   32 1  
    13    6    7 1  
    14    7   33 1  
    15   33   34 1  
    16   34   35 1  
    17   35   40 ar 
    18   35   36 ar 
    19   36   37 ar 
    20   37   38 ar 
    21   38   39 ar 
    22   39   40 ar 
    23   23   24 1  
    24   24   25 1  
    25   25   30 ar 
    26   25   26 ar 
    27   26   27 ar 
    28   27   28 ar 
    29   28   29 ar 
    30   29   30 ar 
    31   16   17 1  
    32   17   22 ar 
    33   17   18 ar 
    34   18   19 ar 
    35   19   20 ar 
    36   20   21 ar 
    37   21   22 ar 
    38    8    9 1  
    39    9   14 ar 
    40    9   10 ar 
    41   10   11 ar 
    42   11   12 ar 
    43   12   13 ar 
    44   13   14 ar 
    45    4   41 1  
    46    5   42 1  
    47    6   43 1  
    48    7   44 1  
    49    8   45 1  
    50    8   46 1  
    51   10   47 1  
    52   11   48 1  
    53   12   49 1  
    54   13   50 1  
    55   14   51 1  
    56   16   52 1  
    57   16   53 1  
    58   18   54 1  
    59   19   55 1  
    60   20   56 1  
    61   21   57 1  
    62   22   58 1  
    63   23   59 1  
    64   23   60 1  
    65   26   61 1  
    66   27   62 1  
    67   28   63 1  
    68   29   64 1  
    69   30   65 1  
    70   31   66 1  
    71   32   67 1  
    72   33   68 1  
    73   33   69 1  
    74   36   70 1  
    75   37   71 1  
    76   38   72 1  
    77   39   73 1  
    78   40   74 1  
@<TRIPOS>SUBSTRUCTURE
     1 SUB1        1 GROUP

