### 
### Created by X-TOOL on Mon Oct 24 23:38:31 2005
### 

@<TRIPOS>MOLECULE
1pxo_ligand
   35    37     1     0     0
SMALL
GAST_HUCK


@<TRIPOS>ATOM
      1 N7A        14.7020   -5.2550   10.1310 N.pl3     1 SUB1       -0.232
      2 C3A        14.7660   -5.9900   11.4310 C.2       1 SUB1        0.329
      3 N2A        15.4960   -5.8690   12.5650 N.2       1 SUB1       -0.108
      4 C1A        15.1960   -6.8040   13.5350 C.2       1 SUB1        0.217
      5 C6A        15.8970   -6.8110   14.8620 C.3       1 SUB1        0.053
      6 S4A        13.6990   -7.2760   11.4070 S.3       1 SUB1        0.214
      7 C5A        14.1890   -7.7700   12.9130 C.2       1 SUB1        0.278
      8 C4         13.2790   -8.8080   13.4660 C.ar      1 SUB1        0.208
      9 N3         12.3730   -9.3710   12.6010 N.ar      1 SUB1       -0.185
     10 C5         13.3580   -9.2110   14.7900 C.ar      1 SUB1        0.064
     11 C6         12.4300  -10.1380   15.1760 C.ar      1 SUB1        0.088
     12 N1         11.5250  -10.6350   14.2790 N.ar      1 SUB1       -0.177
     13 C2         11.5050  -10.2940   13.0070 C.ar      1 SUB1        0.269
     14 N7         10.5780  -10.8880   12.2810 N.pl3     1 SUB1       -0.227
     15 C1B        10.0520  -10.2350   11.0800 C.ar      1 SUB1        0.078
     16 C6B         8.8050  -10.6350   10.5230 C.ar      1 SUB1       -0.031
     17 C2B        10.7100   -9.1400   10.4320 C.ar      1 SUB1       -0.003
     18 C3B        10.1840   -8.4610    9.2830 C.ar      1 SUB1        0.076
     19 N7B        10.7800   -7.3830    8.6140 N.2       1 SUB1       -0.219
     20 O8B        10.4450   -6.2070    8.8780 O.2       1 SUB1       -0.489
     21 O9B        11.6570   -7.5990    7.7480 O.2       1 SUB1       -0.489
     22 C4B         8.9600   -8.8910    8.7530 C.ar      1 SUB1       -0.038
     23 C5B         8.2690   -9.9550    9.3830 C.ar      1 SUB1       -0.062
     24 H11        15.2990   -4.4301    9.9758 H         1 SUB1        0.238
     25 H12        14.0609   -5.5734    9.3904 H         1 SUB1        0.238
     26 H51        15.5065   -7.6340   15.4786 H         1 SUB1        0.070
     27 H52        15.7214   -5.8537   15.3745 H         1 SUB1        0.070
     28 H53        16.9768   -6.9505   14.7056 H         1 SUB1        0.070
     29 H101       14.1037   -8.8185   15.4719 H         1 SUB1        0.124
     30 H111       12.4114  -10.4826   16.2036 H         1 SUB1        0.109
     31 H141       10.2228  -11.8139   12.5594 H         1 SUB1        0.223
     32 H161        8.2576  -11.4598   10.9647 H         1 SUB1        0.059
     33 H171       11.6599   -8.8052   10.8329 H         1 SUB1        0.062
     34 H221        8.5468   -8.4149    7.8711 H         1 SUB1        0.060
     35 H231        7.3067  -10.2632    8.9906 H         1 SUB1        0.061
@<TRIPOS>BOND
     1    2    1 1  
     2    6    2 1  
     3    2    3 2  
     4    4    3 1  
     5    7    4 2  
     6    4    5 1  
     7    8    7 1  
     8    7    6 1  
     9    8   10 ar 
    10    9    8 ar 
    11   13    9 ar 
    12   14   13 1  
    13   13   12 ar 
    14   12   11 ar 
    15   11   10 ar 
    16   15   17 ar 
    17   15   16 ar 
    18   16   23 ar 
    19   23   22 ar 
    20   18   22 ar 
    21   18   19 1  
    22   17   18 ar 
    23   19   21 2  
    24   19   20 2  
    25   14   15 1  
    26    1   24 1  
    27    1   25 1  
    28    5   26 1  
    29    5   27 1  
    30    5   28 1  
    31   10   29 1  
    32   11   30 1  
    33   14   31 1  
    34   16   32 1  
    35   17   33 1  
    36   22   34 1  
    37   23   35 1  
@<TRIPOS>SUBSTRUCTURE
     1 SUB1        1 GROUP

