### 
### Created by X-TOOL on Mon Oct 24 22:27:46 2005
### 

@<TRIPOS>MOLECULE
1afk_ligand
   42    44     1     0     0
SMALL
GAST_HUCK


@<TRIPOS>ATOM
      1 PB         37.0960   -2.6270   23.1460 P.3       1 SUB1        0.158
      2 O1B        35.6450   -2.8540   22.9910 O.co2     1 SUB1       -0.616
      3 O2B        37.4700   -1.7080   24.2740 O.co2     1 SUB1       -0.616
      4 O3B        37.7900   -2.3100   21.8760 O.co2     1 SUB1       -0.616
      5 PA         38.8980   -5.1970   23.0660 P.3       1 SUB1        0.372
      6 O1A        39.1010   -6.1020   24.2360 O.co2     1 SUB1       -0.457
      7 O2A        40.0900   -4.5480   22.4560 O.co2     1 SUB1       -0.457
      8 O3A        37.7130   -4.0790   23.6160 O.3       1 SUB1       -0.257
      9 O5'        38.1350   -6.0710   21.9240 O.3       1 SUB1       -0.253
     10 C5'        37.6540   -5.4600   20.7430 C.3       1 SUB1        0.111
     11 C4'        37.4550   -6.5780   19.7620 C.3       1 SUB1        0.124
     12 O4'        36.8070   -5.9900   18.6290 O.3       1 SUB1       -0.336
     13 C3'        38.7890   -7.1850   19.2480 C.3       1 SUB1        0.136
     14 O3'        38.6030   -8.6050   18.9820 O.3       1 SUB1       -0.314
     15 P          39.2670   -9.7840   20.0240 P.3       1 SUB1        0.206
     16 O1         38.0320  -10.3450   20.6260 O.co2     1 SUB1       -0.535
     17 O2         39.9760  -10.6860   19.0810 O.co2     1 SUB1       -0.535
     18 O3         40.1960   -9.0560   20.9410 O.co2     1 SUB1       -0.535
     19 C2'        38.9870   -6.4000   17.9570 C.3       1 SUB1        0.143
     20 O2'        39.8810   -7.0970   17.0610 O.3       1 SUB1       -0.383
     21 C1'        37.5180   -6.4600   17.4940 C.3       1 SUB1        0.202
     22 N9         37.1230   -5.5360   16.4070 N.pl3     1 SUB1       -0.191
     23 C8         36.2620   -5.9000   15.4020 C.2       1 SUB1        0.110
     24 N7         36.0380   -4.9630   14.5290 N.2       1 SUB1       -0.301
     25 C5         36.8190   -3.8500   14.9770 C.2       1 SUB1        0.105
     26 C6         36.9920   -2.4990   14.4510 C.2       1 SUB1        0.125
     27 N6         36.4470   -2.1010   13.2850 N.pl3     1 SUB1       -0.313
     28 N1         37.7970   -1.6570   15.1510 N.2       1 SUB1       -0.274
     29 C2         38.3900   -2.1300   16.2570 C.2       1 SUB1        0.053
     30 N3         38.3300   -3.3480   16.8480 N.2       1 SUB1       -0.266
     31 C4         37.4970   -4.1920   16.1420 C.2       1 SUB1        0.163
     32 H101       38.3887   -4.7376   20.3578 H         1 SUB1        0.065
     33 H102       36.7012   -4.9458   20.9374 H         1 SUB1        0.065
     34 H111       36.8352   -7.3675   20.2121 H         1 SUB1        0.066
     35 H131       39.6188   -7.0334   19.9540 H         1 SUB1        0.070
     36 H191       39.3428   -5.3724   18.1225 H         1 SUB1        0.068
     37 H201       39.6277   -8.0112   17.0105 H         1 SUB1        0.210
     38 H211       37.2498   -7.4916   17.2224 H         1 SUB1        0.100
     39 H231       35.8064   -6.8872   15.3412 H         1 SUB1        0.131
     40 H271       36.5938   -1.1381   12.9500 H         1 SUB1        0.182
     41 H272       35.8835   -2.7596   12.7285 H         1 SUB1        0.182
     42 H291       39.0297   -1.4119   16.7680 H         1 SUB1        0.108
@<TRIPOS>BOND
     1    1    8 1  
     2    1    4 2  
     3    1    3 2  
     4    1    2 2  
     5    8    5 1  
     6    5    9 1  
     7    5    7 2  
     8    5    6 2  
     9    9   10 1  
    10   10   11 1  
    11   11   13 1  
    12   11   12 1  
    13   12   21 1  
    14   21   22 1  
    15   21   19 1  
    16   19   20 1  
    17   19   13 1  
    18   13   14 1  
    19   14   15 1  
    20   15   18 2  
    21   15   17 2  
    22   15   16 2  
    23   22   31 1  
    24   22   23 1  
    25   23   24 2  
    26   24   25 1  
    27   25   31 2  
    28   25   26 1  
    29   26   28 2  
    30   26   27 1  
    31   28   29 1  
    32   29   30 2  
    33   30   31 1  
    34   10   32 1  
    35   10   33 1  
    36   11   34 1  
    37   13   35 1  
    38   19   36 1  
    39   20   37 1  
    40   21   38 1  
    41   23   39 1  
    42   27   40 1  
    43   27   41 1  
    44   29   42 1  
@<TRIPOS>SUBSTRUCTURE
     1 SUB1        1 GROUP

