### 
### Created by X-TOOL on Sun Jun  3 12:31:28 2007
### 

@<TRIPOS>MOLECULE
2fzg_ligand
   32    32     1     0     0
SMALL
GAST_HUCK


@<TRIPOS>ATOM
      1 OAF        39.6630   26.7050   20.5870 O.2       1 SUB1       -0.229
      2 PAU        38.0620   26.6550   20.7670 P.3       1 SUB1        0.493
      3 OAE        37.5950   25.2270   20.1840 O.2       1 SUB1       -0.229
      4 OAC        37.6260   26.8580   22.1750 O.2       1 SUB1       -0.229
      5 CAM        37.4030   27.9190   19.6500 C.3       1 SUB1        0.186
      6 CAQ        37.3050   29.2890   20.3340 C.2       1 SUB1        0.226
      7 OAA        36.3640   29.5170   21.0980 O.2       1 SUB1       -0.383
      8 NAO        38.2480   30.1960   20.0820 N.am      1 SUB1       -0.236
      9 CAS        39.3050   30.0950   19.2740 C.ar      1 SUB1        0.052
     10 CAL        39.5790   28.9730   18.4990 C.ar      1 SUB1       -0.023
     11 CAJ        40.1540   31.2010   19.1800 C.ar      1 SUB1       -0.056
     12 CAI        41.2430   31.1810   18.3200 C.ar      1 SUB1       -0.088
     13 CAK        41.4990   30.0580   17.5410 C.ar      1 SUB1       -0.056
     14 CAT        40.6640   28.9430   17.6300 C.ar      1 SUB1        0.052
     15 NAP        40.8830   27.8270   16.9340 N.am      1 SUB1       -0.236
     16 CAR        41.8350   27.6080   16.0290 C.2       1 SUB1        0.226
     17 OAB        41.9730   26.5330   15.4440 O.2       1 SUB1       -0.383
     18 CAN        42.7920   28.7640   15.7210 C.3       1 SUB1        0.186
     19 PAV        44.3710   28.5490   16.5720 P.3       1 SUB1        0.493
     20 OAH        44.7920   30.0220   17.0630 O.2       1 SUB1       -0.229
     21 OAG        45.4210   28.1190   15.4300 O.2       1 SUB1       -0.229
     22 OAD        44.2920   27.5880   17.7010 O.2       1 SUB1       -0.229
     23 H          36.4016   27.6168   19.3434 H         1 SUB1        0.076
     24 H          38.0774   28.0088   18.7984 H         1 SUB1        0.076
     25 H          38.1487   31.0853   20.5716 H         1 SUB1        0.225
     26 H          38.9305   28.1002   18.5744 H         1 SUB1        0.038
     27 H          39.9595   32.0856   19.7864 H         1 SUB1        0.038
     28 H          41.8998   32.0484   18.2550 H         1 SUB1        0.054
     29 H          42.3511   30.0484   16.8613 H         1 SUB1        0.038
     30 H          40.2472   27.0505   17.1160 H         1 SUB1        0.225
     31 H          42.3363   29.6934   16.0625 H         1 SUB1        0.076
     32 H          42.9759   28.7868   14.6469 H         1 SUB1        0.076
@<TRIPOS>BOND
     1    1    2 2  
     2    2    3 2  
     3    2    4 2  
     4    2    5 1  
     5    5    6 1  
     6    6    7 2  
     7    6    8 am 
     8    8    9 1  
     9    9   10 ar 
    10    9   11 ar 
    11   10   14 ar 
    12   11   12 ar 
    13   12   13 ar 
    14   13   14 ar 
    15   14   15 1  
    16   15   16 am 
    17   16   17 2  
    18   16   18 1  
    19   18   19 1  
    20   19   20 2  
    21   19   21 2  
    22   19   22 2  
    23    5   23 1  
    24    5   24 1  
    25    8   25 1  
    26   10   26 1  
    27   11   27 1  
    28   12   28 1  
    29   13   29 1  
    30   15   30 1  
    31   18   31 1  
    32   18   32 1  
@<TRIPOS>SUBSTRUCTURE
     1 SUB1        1 GROUP

