2fzg_ligand
  -I-interpret- 

 32 32  0  0  0  0  0  0  0  0999 V2000
   39.6630   26.7050   20.5870 O   0  5  0  0  0
   38.0620   26.6550   20.7670 P   0  0  0  0  0
   37.5950   25.2270   20.1840 O   0  5  0  0  0
   37.6260   26.8580   22.1750 O   0  0  0  0  0
   37.4030   27.9190   19.6500 C   0  0  0  0  0
   37.3050   29.2890   20.3340 C   0  0  0  0  0
   36.3640   29.5170   21.0980 O   0  0  0  0  0
   38.2480   30.1960   20.0820 N   0  0  0  0  0
   39.3050   30.0950   19.2740 C   0  0  0  0  0
   39.5790   28.9730   18.4990 C   0  0  0  0  0
   40.1540   31.2010   19.1800 C   0  0  0  0  0
   41.2430   31.1810   18.3200 C   0  0  0  0  0
   41.4990   30.0580   17.5410 C   0  0  0  0  0
   40.6640   28.9430   17.6300 C   0  0  0  0  0
   40.8830   27.8270   16.9340 N   0  0  0  0  0
   41.8350   27.6080   16.0290 C   0  0  0  0  0
   41.9730   26.5330   15.4440 O   0  0  0  0  0
   42.7920   28.7640   15.7210 C   0  0  0  0  0
   44.3710   28.5490   16.5720 P   0  0  0  0  0
   44.7920   30.0220   17.0630 O   0  5  0  0  0
   45.4210   28.1190   15.4300 O   0  5  0  0  0
   44.2920   27.5880   17.7010 O   0  0  0  0  0
   36.4016   27.6168   19.3434 H   0  0  0  0  0
   38.0774   28.0088   18.7984 H   0  0  0  0  0
   38.1487   31.0853   20.5716 H   0  0  0  0  0
   38.9305   28.1002   18.5744 H   0  0  0  0  0
   39.9595   32.0856   19.7864 H   0  0  0  0  0
   41.8998   32.0484   18.2550 H   0  0  0  0  0
   42.3511   30.0484   16.8613 H   0  0  0  0  0
   40.2472   27.0505   17.1160 H   0  0  0  0  0
   42.3363   29.6934   16.0625 H   0  0  0  0  0
   42.9759   28.7868   14.6469 H   0  0  0  0  0
  1  2  1  0  0  0
  2  3  1  0  0  0
  2  4  2  0  0  0
  2  5  1  0  0  0
  5  6  1  0  0  0
  6  7  2  0  0  0
  6  8  1  0  0  0
  8  9  1  0  0  0
  9 10  4  0  0  0
  9 11  4  0  0  0
 10 14  4  0  0  0
 11 12  4  0  0  0
 12 13  4  0  0  0
 13 14  4  0  0  0
 14 15  1  0  0  0
 15 16  1  0  0  0
 16 17  2  0  0  0
 16 18  1  0  0  0
 18 19  1  0  0  0
 19 20  1  0  0  0
 19 21  1  0  0  0
 19 22  2  0  0  0
  5 23  1  0  0  0
  5 24  1  0  0  0
  8 25  1  0  0  0
 10 26  1  0  0  0
 11 27  1  0  0  0
 12 28  1  0  0  0
 13 29  1  0  0  0
 15 30  1  0  0  0
 18 31  1  0  0  0
 18 32  1  0  0  0
M  END
$$$$
