1m13_ligand
  -I-interpret- 

 91 92  0  0  0  0  0  0  0  0999 V2000
    9.5070   71.9840   -4.1800 C   0  0  0  0  0
   13.6650   77.9120   -5.8650 C   0  0  0  0  0
   15.1880   79.1870   -4.2550 C   0  0  0  0  0
    5.0030   74.6870   -1.2500 C   0  0  0  0  0
    6.2350   74.6680   -0.3330 C   0  0  0  0  0
    5.8040   74.2810    1.0940 C   0  0  0  0  0
    7.0020   76.0620   -0.3760 C   0  0  0  0  0
    6.2840   77.0480   -0.1880 O   0  0  0  0  0
   13.3150   77.8590   -3.3460 C   0  0  0  0  0
   13.9980   78.2770   -4.4340 C   0  0  0  0  0
   12.0810   76.9660   -3.2950 C   0  0  0  0  0
    8.4820   77.4650   -3.1420 C   0  0  0  0  0
   13.6170   80.8910   -0.1630 C   0  0  0  0  0
   11.7280   82.6660   -0.4250 C   0  0  0  0  0
   12.1300   81.2800    0.0420 C   0  0  0  0  0
   11.1890   80.4850    0.6070 C   0  0  0  0  0
   11.3950   79.0610    1.1560 C   0  0  0  0  0
    9.2020   77.7360    0.0590 C   0  0  0  0  0
    8.4850   78.7260    0.2600 O   0  0  0  0  0
   11.4100   76.5640    2.5800 O   0  0  0  0  0
    8.9400   73.7130   -0.4720 O   0  0  0  0  0
   13.8920   73.3240   -0.3130 C   0  0  0  0  0
   12.6770   71.1600   -1.0270 C   0  0  0  0  0
   12.6530   72.4240   -0.1930 C   0  0  0  0  0
   11.5570   72.6370    0.5940 C   0  0  0  0  0
   11.1320   73.7480    1.5960 C   0  0  0  0  0
    8.6440   76.2870   -0.6350 C   0  0  0  0  0
    9.3820   74.9580   -0.0020 C   0  0  0  0  0
   10.4180   74.9830    0.9740 C   0  0  0  0  0
   10.9160   76.4320    1.4580 C   0  0  0  0  0
   10.7900   77.7140    0.4640 C   0  0  0  0  0
   11.6690   77.3300   -0.8830 C   0  0  0  0  0
   10.9400   77.4360   -2.3010 C   0  0  0  0  0
    9.3900   76.5270   -2.2530 C   0  0  0  0  0
    9.6030   75.2470   -3.1780 C   0  0  0  0  0
    8.4640   74.3130   -3.6750 C   0  0  0  0  0
    9.0340   73.1930   -4.5490 C   0  0  0  0  0
    9.5590   71.4920   -2.7470 C   0  0  0  0  0
   10.0210   71.0400   -5.2370 C   0  0  0  0  0
   14.3902   78.3956   -6.5360 H   0  0  0  0  0
   13.7258   76.8218   -5.9979 H   0  0  0  0  0
   12.6539   78.2646   -6.1165 H   0  0  0  0  0
   15.3321   79.3812   -3.1819 H   0  0  0  0  0
   16.0920   78.7057   -4.6564 H   0  0  0  0  0
   15.0109   80.1420   -4.7712 H   0  0  0  0  0
    4.5001   73.7103   -1.1944 H   0  0  0  0  0
    4.3030   75.4694   -0.9217 H   0  0  0  0  0
    5.3118   74.8722   -2.2894 H   0  0  0  0  0
    6.9362   73.9053   -0.7024 H   0  0  0  0  0
    6.6905   74.2693    1.7451 H   0  0  0  0  0
    5.0848   75.0176    1.4814 H   0  0  0  0  0
    5.3494   73.2794    1.0899 H   0  0  0  0  0
   13.6937   78.2033   -2.3848 H   0  0  0  0  0
   12.4141   75.9631   -2.9897 H   0  0  0  0  0
   11.6608   76.9286   -4.3109 H   0  0  0  0  0
    8.9578   77.5970   -4.1250 H   0  0  0  0  0
    7.4923   77.0059   -3.2819 H   0  0  0  0  0
    8.3746   78.4484   -2.6611 H   0  0  0  0  0
   14.1434   81.7289   -0.6434 H   0  0  0  0  0
   14.0876   80.6825    0.8091 H   0  0  0  0  0
   13.6870   80.0051   -0.8113 H   0  0  0  0  0
   10.6569   82.8150   -0.2238 H   0  0  0  0  0
   12.3042   83.4275    0.1208 H   0  0  0  0  0
   11.9064   82.7640   -1.5060 H   0  0  0  0  0
   10.1831   80.8957    0.6804 H   0  0  0  0  0
   12.4829   78.9018    1.1886 H   0  0  0  0  0
   10.9860   79.0663    2.1771 H   0  0  0  0  0
    8.2519   73.8441   -1.1138 H   0  0  0  0  0
   14.5942   72.8729   -1.0295 H   0  0  0  0  0
   13.5986   74.3195   -0.6774 H   0  0  0  0  0
   14.3867   73.4136    0.6653 H   0  0  0  0  0
   11.7440   70.6022   -0.8588 H   0  0  0  0  0
   12.7538   71.4160   -2.0940 H   0  0  0  0  0
   13.5289   70.5308   -0.7300 H   0  0  0  0  0
   10.8109   71.8496    0.4979 H   0  0  0  0  0
   10.4408   73.3054    2.3283 H   0  0  0  0  0
   12.0345   74.1151    2.1065 H   0  0  0  0  0
   12.5369   78.0047   -0.9208 H   0  0  0  0  0
   12.0077   76.2889   -0.7770 H   0  0  0  0  0
   10.6776   78.4796   -2.5291 H   0  0  0  0  0
   10.0886   75.6140   -4.0942 H   0  0  0  0  0
   10.2902   74.5877   -2.6276 H   0  0  0  0  0
    7.9550   73.8604   -2.8113 H   0  0  0  0  0
    7.7453   74.8935   -4.2719 H   0  0  0  0  0
    9.0617   73.4007   -5.6177 H   0  0  0  0  0
    9.9875   70.4790   -2.7315 H   0  0  0  0  0
   10.1935   72.1585   -2.1444 H   0  0  0  0  0
    8.5438   71.4579   -2.3250 H   0  0  0  0  0
    9.9256   71.5195   -6.2224 H   0  0  0  0  0
   11.0806   70.8103   -5.0516 H   0  0  0  0  0
    9.4296   70.1125   -5.2312 H   0  0  0  0  0
 37  1  2  0  0  0
  1 38  1  0  0  0
  1 39  1  0  0  0
 10  2  1  0  0  0
  5  4  1  0  0  0
  5  6  1  0  0  0
  7  5  1  0  0  0
  7  8  2  0  0  0
 11 33  1  0  0  0
 15 13  1  0  0  0
 16 15  2  0  0  0
 17 16  1  0  0  0
 31 17  1  0  0  0
 18 19  2  0  0  0
 27 18  1  0  0  0
 31 18  1  0  0  0
 24 22  1  0  0  0
 25 24  2  0  0  0
 26 25  1  0  0  0
 27  7  1  0  0  0
 27 28  1  0  0  0
 28 29  2  0  0  0
 29 26  1  0  0  0
 30 29  1  0  0  0
 31 30  1  0  0  0
 32 31  1  0  0  0
 33 32  1  0  0  0
 33 34  1  0  0  0
 34 27  1  0  0  0
 34 35  1  0  0  0
 35 36  1  0  0  0
 36 37  1  0  0  0
 34 12  1  0  0  0
 30 20  2  0  0  0
 28 21  1  0  0  0
 24 23  1  0  0  0
 15 14  1  0  0  0
  9 11  1  0  0  0
  9 10  2  0  0  0
 10  3  1  0  0  0
  2 40  1  0  0  0
  2 41  1  0  0  0
  2 42  1  0  0  0
  3 43  1  0  0  0
  3 44  1  0  0  0
  3 45  1  0  0  0
  4 46  1  0  0  0
  4 47  1  0  0  0
  4 48  1  0  0  0
  5 49  1  0  0  0
  6 50  1  0  0  0
  6 51  1  0  0  0
  6 52  1  0  0  0
  9 53  1  0  0  0
 11 54  1  0  0  0
 11 55  1  0  0  0
 12 56  1  0  0  0
 12 57  1  0  0  0
 12 58  1  0  0  0
 13 59  1  0  0  0
 13 60  1  0  0  0
 13 61  1  0  0  0
 14 62  1  0  0  0
 14 63  1  0  0  0
 14 64  1  0  0  0
 16 65  1  0  0  0
 17 66  1  0  0  0
 17 67  1  0  0  0
 21 68  1  0  0  0
 22 69  1  0  0  0
 22 70  1  0  0  0
 22 71  1  0  0  0
 23 72  1  0  0  0
 23 73  1  0  0  0
 23 74  1  0  0  0
 25 75  1  0  0  0
 26 76  1  0  0  0
 26 77  1  0  0  0
 32 78  1  0  0  0
 32 79  1  0  0  0
 33 80  1  0  0  0
 35 81  1  0  0  0
 35 82  1  0  0  0
 36 83  1  0  0  0
 36 84  1  0  0  0
 37 85  1  0  0  0
 38 86  1  0  0  0
 38 87  1  0  0  0
 38 88  1  0  0  0
 39 89  1  0  0  0
 39 90  1  0  0  0
 39 91  1  0  0  0
M  END
$$$$
