### 
### Created by X-TOOL on Tue Oct 25 01:17:02 2005
### 

@<TRIPOS>MOLECULE
1m13_ligand
   91    92     1     0     0
SMALL
GAST_HUCK


@<TRIPOS>ATOM
      1 C1          9.5070   71.9840   -4.1800 C.2       1 SUB1       -0.087
      2 C2         13.6650   77.9120   -5.8650 C.3       1 SUB1       -0.041
      3 C3         15.1880   79.1870   -4.2550 C.3       1 SUB1       -0.041
      4 C4          5.0030   74.6870   -1.2500 C.3       1 SUB1       -0.049
      5 C5          6.2350   74.6680   -0.3330 C.3       1 SUB1        0.009
      6 C6          5.8040   74.2810    1.0940 C.3       1 SUB1       -0.049
      7 C7          7.0020   76.0620   -0.3760 C.2       1 SUB1        0.066
      8 O8          6.2840   77.0480   -0.1880 O.2       1 SUB1       -0.381
      9 C9         13.3150   77.8590   -3.3460 C.2       1 SUB1       -0.109
     10 C10        13.9980   78.2770   -4.4340 C.2       1 SUB1       -0.087
     11 C11        12.0810   76.9660   -3.2950 C.3       1 SUB1       -0.046
     12 C12         8.4820   77.4650   -3.1420 C.3       1 SUB1       -0.074
     13 C13        13.6170   80.8910   -0.1630 C.3       1 SUB1       -0.041
     14 C14        11.7280   82.6660   -0.4250 C.3       1 SUB1       -0.041
     15 C15        12.1300   81.2800    0.0420 C.2       1 SUB1       -0.087
     16 C16        11.1890   80.4850    0.6070 C.2       1 SUB1       -0.111
     17 C17        11.3950   79.0610    1.1560 C.3       1 SUB1       -0.032
     18 C18         9.2020   77.7360    0.0590 C.2       1 SUB1        0.096
     19 O19         8.4850   78.7260    0.2600 O.2       1 SUB1       -0.329
     20 O20        11.4100   76.5640    2.5800 O.2       1 SUB1       -0.289
     21 O21         8.9400   73.7130   -0.4720 O.3       1 SUB1       -0.333
     22 C22        13.8920   73.3240   -0.3130 C.3       1 SUB1       -0.033
     23 C23        12.6770   71.1600   -1.0270 C.3       1 SUB1       -0.033
     24 C24        12.6530   72.4240   -0.1930 C.2       1 SUB1       -0.067
     25 C25        11.5570   72.6370    0.5940 C.2       1 SUB1       -0.067
     26 C26        11.1320   73.7480    1.5960 C.3       1 SUB1        0.043
     27 C27         8.6440   76.2870   -0.6350 C.3       1 SUB1        0.080
     28 C28         9.3820   74.9580   -0.0020 C.2       1 SUB1        0.094
     29 C29        10.4180   74.9830    0.9740 C.2       1 SUB1        0.113
     30 C30        10.9160   76.4320    1.4580 C.2       1 SUB1        0.222
     31 C31        10.7900   77.7140    0.4640 C.3       1 SUB1        0.098
     32 C32        11.6690   77.3300   -0.8830 C.3       1 SUB1       -0.034
     33 C33        10.9400   77.4360   -2.3010 C.3       1 SUB1       -0.048
     34 C34         9.3900   76.5270   -2.2530 C.3       1 SUB1       -0.058
     35 C35         9.6030   75.2470   -3.1780 C.3       1 SUB1       -0.059
     36 C36         8.4640   74.3130   -3.6750 C.3       1 SUB1       -0.048
     37 C37         9.0340   73.1930   -4.5490 C.2       1 SUB1       -0.109
     38 C38         9.5590   71.4920   -2.7470 C.3       1 SUB1       -0.041
     39 C39        10.0210   71.0400   -5.2370 C.3       1 SUB1       -0.041
     40 H21        14.3902   78.3956   -6.5360 H         1 SUB1        0.038
     41 H22        13.7258   76.8218   -5.9979 H         1 SUB1        0.038
     42 H23        12.6539   78.2646   -6.1165 H         1 SUB1        0.038
     43 H31        15.3321   79.3812   -3.1819 H         1 SUB1        0.038
     44 H32        16.0920   78.7057   -4.6564 H         1 SUB1        0.038
     45 H33        15.0109   80.1420   -4.7712 H         1 SUB1        0.038
     46 H41         4.5001   73.7103   -1.1944 H         1 SUB1        0.026
     47 H42         4.3030   75.4694   -0.9217 H         1 SUB1        0.026
     48 H43         5.3118   74.8722   -2.2894 H         1 SUB1        0.026
     49 H51         6.9362   73.9053   -0.7024 H         1 SUB1        0.050
     50 H61         6.6905   74.2693    1.7451 H         1 SUB1        0.026
     51 H62         5.0848   75.0176    1.4814 H         1 SUB1        0.026
     52 H63         5.3494   73.2794    1.0899 H         1 SUB1        0.026
     53 H91        13.6937   78.2033   -2.3848 H         1 SUB1        0.024
     54 H111       12.4141   75.9631   -2.9897 H         1 SUB1        0.034
     55 H112       11.6608   76.9286   -4.3109 H         1 SUB1        0.034
     56 H121        8.9578   77.5970   -4.1250 H         1 SUB1        0.022
     57 H122        7.4923   77.0059   -3.2819 H         1 SUB1        0.022
     58 H123        8.3746   78.4484   -2.6611 H         1 SUB1        0.022
     59 H131       14.1434   81.7289   -0.6434 H         1 SUB1        0.038
     60 H132       14.0876   80.6825    0.8091 H         1 SUB1        0.038
     61 H133       13.6870   80.0051   -0.8113 H         1 SUB1        0.038
     62 H141       10.6569   82.8150   -0.2238 H         1 SUB1        0.038
     63 H142       12.3042   83.4275    0.1208 H         1 SUB1        0.038
     64 H143       11.9064   82.7640   -1.5060 H         1 SUB1        0.038
     65 H161       10.1831   80.8957    0.6804 H         1 SUB1        0.024
     66 H171       12.4829   78.9018    1.1886 H         1 SUB1        0.032
     67 H172       10.9860   79.0663    2.1771 H         1 SUB1        0.032
     68 H211        8.2519   73.8441   -1.1138 H         1 SUB1        0.253
     69 H221       14.5942   72.8729   -1.0295 H         1 SUB1        0.041
     70 H222       13.5986   74.3195   -0.6774 H         1 SUB1        0.041
     71 H223       14.3867   73.4136    0.6653 H         1 SUB1        0.041
     72 H231       11.7440   70.6022   -0.8588 H         1 SUB1        0.041
     73 H232       12.7538   71.4160   -2.0940 H         1 SUB1        0.041
     74 H233       13.5289   70.5308   -0.7300 H         1 SUB1        0.041
     75 H251       10.8109   71.8496    0.4979 H         1 SUB1        0.036
     76 H261       10.4408   73.3054    2.3283 H         1 SUB1        0.079
     77 H262       12.0345   74.1151    2.1065 H         1 SUB1        0.079
     78 H321       12.5369   78.0047   -0.9208 H         1 SUB1        0.025
     79 H322       12.0077   76.2889   -0.7770 H         1 SUB1        0.025
     80 H331       10.6776   78.4796   -2.5291 H         1 SUB1        0.030
     81 H351       10.0886   75.6140   -4.0942 H         1 SUB1        0.027
     82 H352       10.2902   74.5877   -2.6276 H         1 SUB1        0.027
     83 H361        7.9550   73.8604   -2.8113 H         1 SUB1        0.034
     84 H362        7.7453   74.8935   -4.2719 H         1 SUB1        0.034
     85 H371        9.0617   73.4007   -5.6177 H         1 SUB1        0.024
     86 H381        9.9875   70.4790   -2.7315 H         1 SUB1        0.038
     87 H382       10.1935   72.1585   -2.1444 H         1 SUB1        0.038
     88 H383        8.5438   71.4579   -2.3250 H         1 SUB1        0.038
     89 H391        9.9256   71.5195   -6.2224 H         1 SUB1        0.038
     90 H392       11.0806   70.8103   -5.0516 H         1 SUB1        0.038
     91 H393        9.4296   70.1125   -5.2312 H         1 SUB1        0.038
@<TRIPOS>BOND
     1   37    1 2  
     2    1   38 1  
     3    1   39 1  
     4   10    2 1  
     5    5    4 1  
     6    5    6 1  
     7    7    5 1  
     8    7    8 2  
     9   11   33 1  
    10   15   13 1  
    11   16   15 2  
    12   17   16 1  
    13   31   17 1  
    14   18   19 2  
    15   27   18 1  
    16   31   18 1  
    17   24   22 1  
    18   25   24 2  
    19   26   25 1  
    20   27    7 1  
    21   27   28 1  
    22   28   29 2  
    23   29   26 1  
    24   30   29 1  
    25   31   30 1  
    26   32   31 1  
    27   33   32 1  
    28   33   34 1  
    29   34   27 1  
    30   34   35 1  
    31   35   36 1  
    32   36   37 1  
    33   34   12 1  
    34   30   20 2  
    35   28   21 1  
    36   24   23 1  
    37   15   14 1  
    38    9   11 1  
    39    9   10 2  
    40   10    3 1  
    41    2   40 1  
    42    2   41 1  
    43    2   42 1  
    44    3   43 1  
    45    3   44 1  
    46    3   45 1  
    47    4   46 1  
    48    4   47 1  
    49    4   48 1  
    50    5   49 1  
    51    6   50 1  
    52    6   51 1  
    53    6   52 1  
    54    9   53 1  
    55   11   54 1  
    56   11   55 1  
    57   12   56 1  
    58   12   57 1  
    59   12   58 1  
    60   13   59 1  
    61   13   60 1  
    62   13   61 1  
    63   14   62 1  
    64   14   63 1  
    65   14   64 1  
    66   16   65 1  
    67   17   66 1  
    68   17   67 1  
    69   21   68 1  
    70   22   69 1  
    71   22   70 1  
    72   22   71 1  
    73   23   72 1  
    74   23   73 1  
    75   23   74 1  
    76   25   75 1  
    77   26   76 1  
    78   26   77 1  
    79   32   78 1  
    80   32   79 1  
    81   33   80 1  
    82   35   81 1  
    83   35   82 1  
    84   36   83 1  
    85   36   84 1  
    86   37   85 1  
    87   38   86 1  
    88   38   87 1  
    89   38   88 1  
    90   39   89 1  
    91   39   90 1  
    92   39   91 1  
@<TRIPOS>SUBSTRUCTURE
     1 SUB1        1 GROUP

