### 
### Created by X-TOOL on Mon Oct 24 22:47:01 2005
### 

@<TRIPOS>MOLECULE
1k4h_ligand
   34    35     1     0     0
SMALL
GAST_HUCK


@<TRIPOS>ATOM
      1 H21        12.3972   14.2949   18.9249 H         1 SUB1        0.038
      2 C10        12.9290   14.6350   18.0240 C.3       1 SUB1       -0.005
      3 C11        12.3480   15.9970   17.5590 C.3       1 SUB1       -0.047
      4 C12        11.7970   15.8360   16.1110 C.3       1 SUB1       -0.064
      5 S1         14.6910   14.8460   18.4000 S.3       1 SUB1       -0.148
      6 C9         14.9260   16.5260   19.1510 C.3       1 SUB1        0.023
      7 C2         16.3500   16.9360   19.6250 C.ar      1 SUB1       -0.036
      8 C3         16.5660   17.1270   21.0140 C.ar      1 SUB1       -0.004
      9 N3         15.5460   16.9320   21.9280 N.2       1 SUB1       -0.316
     10 C8         15.6810   17.0890   23.2010 C.2       1 SUB1        0.226
     11 N1         16.8540   17.4550   23.7440 N.am      1 SUB1       -0.182
     12 C7         17.9440   17.6790   23.0040 C.2       1 SUB1        0.228
     13 O1         19.0240   18.0180   23.5010 O.2       1 SUB1       -0.388
     14 C4         17.8510   17.5110   21.4910 C.ar      1 SUB1        0.039
     15 C5         18.9310   17.7190   20.5890 C.ar      1 SUB1       -0.042
     16 C6         18.7120   17.5300   19.1980 C.ar      1 SUB1        0.024
     17 N4         19.7060   17.7150   18.2950 N.pl3     1 SUB1       -0.343
     18 C1         17.4320   17.1480   18.7450 C.ar      1 SUB1       -0.046
     19 N2         14.6500   16.8820   23.9810 N.pl3     1 SUB1       -0.283
     20 H22        12.8087   13.8898   17.2239 H         1 SUB1        0.038
     21 H31        13.1395   16.7607   17.5711 H         1 SUB1        0.027
     22 H32        11.5340   16.3018   18.2331 H         1 SUB1        0.027
     23 H41        11.3815   16.7950   15.7681 H         1 SUB1        0.023
     24 H42        11.0074   15.0702   16.1022 H         1 SUB1        0.023
     25 H43        12.6130   15.5291   15.4402 H         1 SUB1        0.023
     26 H61        14.2629   16.5857   20.0266 H         1 SUB1        0.052
     27 H62        14.6089   17.2644   18.3999 H         1 SUB1        0.052
     28 H111       16.9136   17.5636   24.7363 H         1 SUB1        0.250
     29 H151       19.9060   18.0171   20.9572 H         1 SUB1        0.047
     30 H171       19.5233   17.5720   17.2915 H         1 SUB1        0.169
     31 H172       20.6439   17.9986   18.6124 H         1 SUB1        0.169
     32 H181       17.2739   17.0123   17.6812 H         1 SUB1        0.047
     33 H191       13.7457   16.6011   23.5757 H         1 SUB1        0.189
     34 H192       14.7432   17.0001   25.0000 H         1 SUB1        0.189
@<TRIPOS>BOND
     1    2    5 1  
     2    2    3 1  
     3    3    4 1  
     4    5    6 1  
     5    6    7 1  
     6    7   18 ar 
     7    7    8 ar 
     8    8   14 ar 
     9    8    9 1  
    10    9   10 2  
    11   10   19 1  
    12   10   11 am 
    13   11   12 am 
    14   12   14 1  
    15   12   13 2  
    16   14   15 ar 
    17   15   16 ar 
    18   16   18 ar 
    19   16   17 1  
    20    2    1 1  
    21    2   20 1  
    22    3   21 1  
    23    3   22 1  
    24    4   23 1  
    25    4   24 1  
    26    4   25 1  
    27    6   26 1  
    28    6   27 1  
    29   11   28 1  
    30   15   29 1  
    31   17   30 1  
    32   17   31 1  
    33   18   32 1  
    34   19   33 1  
    35   19   34 1  
@<TRIPOS>SUBSTRUCTURE
     1 SUB1        1 GROUP

