1xbb_ligand
  -I-interpret- 

 68 72  0  0  0  0  0  0  0  0999 V2000
    3.9380    3.4650   11.7780 C   0  0  0  0  0
    3.6290    2.3700   12.6010 C   0  0  0  0  0
    4.6170    1.8690   13.4470 C   0  0  0  0  0
    5.8700    2.4920   13.4700 C   0  0  0  0  0
    6.1530    3.5280   12.6580 N   0  0  0  0  0
    5.2200    4.0130   11.8200 C   0  0  0  0  0
    4.3560    0.7770   14.2950 C   0  0  0  0  0
    5.3540    0.2660   15.1580 C   0  0  0  0  0
    5.0000   -0.7930   15.9910 C   0  0  0  0  0
    3.7150   -1.2770   15.9520 N   0  0  0  0  0
    2.7860   -0.8100   15.0840 C   0  0  0  0  0
    3.0970    0.2260   14.2690 N   0  0  0  0  0
    1.5510   -1.3980   15.1430 N   0  0  0  0  0
    0.4250   -1.0900   14.4150 C   0  0  0  0  0
   -0.6890   -1.8950   14.6570 C   0  0  0  0  0
   -1.8910   -1.6720   13.9850 C   0  0  0  0  0
   -1.9570   -0.6360   13.0540 C   0  0  0  0  0
   -0.8630    0.1810   12.7910 C   0  0  0  0  0
    0.3500   -0.0450   13.4700 C   0  0  0  0  0
   -1.1130    1.1520   11.8590 N   0  0  0  0  0
   -0.2990    2.0520   11.3120 C   0  0  0  0  0
   -0.8540    3.2160   10.5210 C   0  0  0  0  0
   -0.1590    3.6410    9.3840 C   0  0  0  0  0
   -0.6230    4.7160    8.6260 C   0  0  0  0  0
   -1.7950    5.3740    9.0020 C   0  0  0  0  0
   -2.4920    4.9560   10.1450 C   0  0  0  0  0
   -2.0220    3.8790   10.9050 C   0  0  0  0  0
   -2.2480    6.5420    8.1440 C   0  0  0  0  0
   -3.6840    6.7940    8.1130 N   0  0  0  0  0
   -4.2520    7.7800    9.0360 C   0  0  0  0  0
   -5.4660    7.1450    9.7170 C   0  0  0  0  0
   -6.2730    6.6010    8.6310 N   0  0  0  0  0
   -7.6040    7.1290    8.3640 C   0  0  0  0  0
   -5.7380    5.5230    7.8110 C   0  0  0  0  0
   -4.5020    6.0990    7.1150 C   0  0  0  0  0
    0.9160    1.9340   11.3550 O   0  0  0  0  0
   -0.6400   -3.0270   15.6600 C   0  0  0  0  0
    3.1870    3.8807   11.1160 H   0  0  0  0  0
    2.6416    1.9232   12.5788 H   0  0  0  0  0
    6.6286    2.1329   14.1560 H   0  0  0  0  0
    5.4678    4.8422   11.1673 H   0  0  0  0  0
    6.3548    0.6822   15.1705 H   0  0  0  0  0
    5.7303   -1.2301   16.6623 H   0  0  0  0  0
    1.2468   -1.2892   16.1735 H   0  0  0  0  0
   -2.7575   -2.2925   14.1829 H   0  0  0  0  0
   -2.8852   -0.4631   12.5215 H   0  0  0  0  0
    1.2153    0.5762   13.2691 H   0  0  0  0  0
   -2.0591    1.1915   11.5375 H   0  0  0  0  0
    0.7500    3.1294    9.0888 H   0  0  0  0  0
   -0.0754    5.0392    7.7481 H   0  0  0  0  0
   -3.3994    5.4698   10.4412 H   0  0  0  0  0
   -2.5626    3.5603   11.7889 H   0  0  0  0  0
   -1.9179    6.3497    7.1125 H   0  0  0  0  0
   -1.7554    7.4493    8.5236 H   0  0  0  0  0
   -4.5626    8.6767    8.4797 H   0  0  0  0  0
   -3.5031    8.0586    9.7920 H   0  0  0  0  0
   -6.0338    7.9023   10.2774 H   0  0  0  0  0
   -5.1493    6.3437   10.4009 H   0  0  0  0  0
   -8.0475    6.5920    7.5126 H   0  0  0  0  0
   -7.5323    8.2002    8.1246 H   0  0  0  0  0
   -8.2374    6.9935    9.2531 H   0  0  0  0  0
   -6.4820    5.2031    7.0666 H   0  0  0  0  0
   -5.4577    4.6660    8.4410 H   0  0  0  0  0
   -3.9192    5.2841    6.6607 H   0  0  0  0  0
   -4.8135    6.8072    6.3331 H   0  0  0  0  0
    0.3646   -3.0792   16.1051 H   0  0  0  0  0
   -0.8661   -3.9765   15.1527 H   0  0  0  0  0
   -1.3828   -2.8482   16.4514 H   0  0  0  0  0
  1  2  4  0  0  0
  1  6  4  0  0  0
  2  3  4  0  0  0
  3  4  4  0  0  0
  3  7  1  0  0  0
  4  5  4  0  0  0
  5  6  4  0  0  0
  7  8  4  0  0  0
  7 12  4  0  0  0
  8  9  4  0  0  0
  9 10  4  0  0  0
 10 11  4  0  0  0
 11 12  4  0  0  0
 11 13  1  0  0  0
 13 14  1  0  0  0
 14 15  4  0  0  0
 14 19  4  0  0  0
 15 16  4  0  0  0
 15 37  1  0  0  0
 16 17  4  0  0  0
 17 18  4  0  0  0
 18 19  4  0  0  0
 18 20  1  0  0  0
 20 21  1  0  0  0
 21 22  1  0  0  0
 21 36  2  0  0  0
 22 23  4  0  0  0
 22 27  4  0  0  0
 23 24  4  0  0  0
 24 25  4  0  0  0
 25 26  4  0  0  0
 25 28  1  0  0  0
 26 27  4  0  0  0
 28 29  1  0  0  0
 29 30  1  0  0  0
 29 35  1  0  0  0
 30 31  1  0  0  0
 31 32  1  0  0  0
 32 33  1  0  0  0
 32 34  1  0  0  0
 34 35  1  0  0  0
  1 38  1  0  0  0
  2 39  1  0  0  0
  4 40  1  0  0  0
  6 41  1  0  0  0
  8 42  1  0  0  0
  9 43  1  0  0  0
 13 44  1  0  0  0
 16 45  1  0  0  0
 17 46  1  0  0  0
 19 47  1  0  0  0
 20 48  1  0  0  0
 23 49  1  0  0  0
 24 50  1  0  0  0
 26 51  1  0  0  0
 27 52  1  0  0  0
 28 53  1  0  0  0
 28 54  1  0  0  0
 30 55  1  0  0  0
 30 56  1  0  0  0
 31 57  1  0  0  0
 31 58  1  0  0  0
 33 59  1  0  0  0
 33 60  1  0  0  0
 33 61  1  0  0  0
 34 62  1  0  0  0
 34 63  1  0  0  0
 35 64  1  0  0  0
 35 65  1  0  0  0
 37 66  1  0  0  0
 37 67  1  0  0  0
 37 68  1  0  0  0
M  END
$$$$
