### 
### Created by X-TOOL on Mon Oct 24 22:01:41 2005
### 

@<TRIPOS>MOLECULE
1xbb_ligand
   68    72     1     0     0
SMALL
GAST_HUCK


@<TRIPOS>ATOM
      1 C1          3.9380    3.4650   11.7780 C.ar      1 SUB1       -0.030
      2 C6          3.6290    2.3700   12.6010 C.ar      1 SUB1       -0.029
      3 C5          4.6170    1.8690   13.4470 C.ar      1 SUB1        0.032
      4 C4          5.8700    2.4920   13.4700 C.ar      1 SUB1        0.025
      5 N3          6.1530    3.5280   12.6580 N.ar      1 SUB1       -0.292
      6 C2          5.2200    4.0130   11.8200 C.ar      1 SUB1        0.014
      7 C7          4.3560    0.7770   14.2950 C.ar      1 SUB1        0.062
      8 C12         5.3540    0.2660   15.1580 C.ar      1 SUB1       -0.015
      9 C11         5.0000   -0.7930   15.9910 C.ar      1 SUB1        0.015
     10 N10         3.7150   -1.2770   15.9520 N.ar      1 SUB1       -0.252
     11 C9          2.7860   -0.8100   15.0840 C.ar      1 SUB1        0.209
     12 N8          3.0970    0.2260   14.2690 N.ar      1 SUB1       -0.245
     13 N13         1.5510   -1.3980   15.1430 N.pl3     1 SUB1       -0.248
     14 C14         0.4250   -1.0900   14.4150 C.ar      1 SUB1        0.055
     15 C19        -0.6890   -1.8950   14.6570 C.ar      1 SUB1       -0.036
     16 C18        -1.8910   -1.6720   13.9850 C.ar      1 SUB1       -0.082
     17 C17        -1.9570   -0.6360   13.0540 C.ar      1 SUB1       -0.059
     18 C16        -0.8630    0.1810   12.7910 C.ar      1 SUB1        0.049
     19 C15         0.3500   -0.0450   13.4700 C.ar      1 SUB1       -0.024
     20 N21        -1.1130    1.1520   11.8590 N.am      1 SUB1       -0.240
     21 C22        -0.2990    2.0520   11.3120 C.2       1 SUB1        0.226
     22 C23        -0.8540    3.2160   10.5210 C.ar      1 SUB1        0.049
     23 C25        -0.1590    3.6410    9.3840 C.ar      1 SUB1       -0.048
     24 C26        -0.6230    4.7160    8.6260 C.ar      1 SUB1       -0.053
     25 C27        -1.7950    5.3740    9.0020 C.ar      1 SUB1       -0.024
     26 C28        -2.4920    4.9560   10.1450 C.ar      1 SUB1       -0.053
     27 C29        -2.0220    3.8790   10.9050 C.ar      1 SUB1       -0.048
     28 C46        -2.2480    6.5420    8.1440 C.3       1 SUB1        0.035
     29 N48        -3.6840    6.7940    8.1130 N.3       1 SUB1       -0.288
     30 C53        -4.2520    7.7800    9.0360 C.3       1 SUB1        0.014
     31 C52        -5.4660    7.1450    9.7170 C.3       1 SUB1        0.012
     32 N51        -6.2730    6.6010    8.6310 N.3       1 SUB1       -0.303
     33 C54        -7.6040    7.1290    8.3640 C.3       1 SUB1       -0.013
     34 C50        -5.7380    5.5230    7.8110 C.3       1 SUB1        0.012
     35 C49        -4.5020    6.0990    7.1150 C.3       1 SUB1        0.014
     36 O29         0.9160    1.9340   11.3550 O.2       1 SUB1       -0.377
     37 C20        -0.6400   -3.0270   15.6600 C.3       1 SUB1       -0.040
     38 H11         3.1870    3.8807   11.1160 H         1 SUB1        0.072
     39 H21         2.6416    1.9232   12.5788 H         1 SUB1        0.077
     40 H41         6.6286    2.1329   14.1560 H         1 SUB1        0.086
     41 H61         5.4678    4.8422   11.1673 H         1 SUB1        0.085
     42 H81         6.3548    0.6822   15.1705 H         1 SUB1        0.068
     43 H91         5.7303   -1.2301   16.6623 H         1 SUB1        0.089
     44 H131        1.2468   -1.2892   16.1735 H         1 SUB1        0.216
     45 H161       -2.7575   -2.2925   14.1829 H         1 SUB1        0.049
     46 H171       -2.8852   -0.4631   12.5215 H         1 SUB1        0.039
     47 H191        1.2153    0.5762   13.2691 H         1 SUB1        0.040
     48 H201       -2.0591    1.1915   11.5375 H         1 SUB1        0.223
     49 H231        0.7500    3.1294    9.0888 H         1 SUB1        0.065
     50 H241       -0.0754    5.0392    7.7481 H         1 SUB1        0.057
     51 H261       -3.3994    5.4698   10.4412 H         1 SUB1        0.057
     52 H271       -2.5626    3.5603   11.7889 H         1 SUB1        0.065
     53 H281       -1.9179    6.3497    7.1125 H         1 SUB1        0.060
     54 H282       -1.7554    7.4493    8.5236 H         1 SUB1        0.060
     55 H301       -4.5626    8.6767    8.4797 H         1 SUB1        0.044
     56 H302       -3.5031    8.0586    9.7920 H         1 SUB1        0.044
     57 H311       -6.0338    7.9023   10.2774 H         1 SUB1        0.044
     58 H312       -5.1493    6.3437   10.4009 H         1 SUB1        0.044
     59 H331       -8.0475    6.5920    7.5126 H         1 SUB1        0.039
     60 H332       -7.5323    8.2002    8.1246 H         1 SUB1        0.039
     61 H333       -8.2374    6.9935    9.2531 H         1 SUB1        0.039
     62 H341       -6.4820    5.2031    7.0666 H         1 SUB1        0.044
     63 H342       -5.4577    4.6660    8.4410 H         1 SUB1        0.044
     64 H351       -3.9192    5.2841    6.6607 H         1 SUB1        0.044
     65 H352       -4.8135    6.8072    6.3331 H         1 SUB1        0.044
     66 H371        0.3646   -3.0792   16.1051 H         1 SUB1        0.034
     67 H372       -0.8661   -3.9765   15.1527 H         1 SUB1        0.034
     68 H373       -1.3828   -2.8482   16.4514 H         1 SUB1        0.034
@<TRIPOS>BOND
     1    1    2 ar 
     2    1    6 ar 
     3    2    3 ar 
     4    3    4 ar 
     5    3    7 1  
     6    4    5 ar 
     7    5    6 ar 
     8    7    8 ar 
     9    7   12 ar 
    10    8    9 ar 
    11    9   10 ar 
    12   10   11 ar 
    13   11   12 ar 
    14   11   13 1  
    15   13   14 1  
    16   14   15 ar 
    17   14   19 ar 
    18   15   16 ar 
    19   15   37 1  
    20   16   17 ar 
    21   17   18 ar 
    22   18   19 ar 
    23   18   20 1  
    24   20   21 am 
    25   21   22 1  
    26   21   36 2  
    27   22   23 ar 
    28   22   27 ar 
    29   23   24 ar 
    30   24   25 ar 
    31   25   26 ar 
    32   25   28 1  
    33   26   27 ar 
    34   28   29 1  
    35   29   30 1  
    36   29   35 1  
    37   30   31 1  
    38   31   32 1  
    39   32   33 1  
    40   32   34 1  
    41   34   35 1  
    42    1   38 1  
    43    2   39 1  
    44    4   40 1  
    45    6   41 1  
    46    8   42 1  
    47    9   43 1  
    48   13   44 1  
    49   16   45 1  
    50   17   46 1  
    51   19   47 1  
    52   20   48 1  
    53   23   49 1  
    54   24   50 1  
    55   26   51 1  
    56   27   52 1  
    57   28   53 1  
    58   28   54 1  
    59   30   55 1  
    60   30   56 1  
    61   31   57 1  
    62   31   58 1  
    63   33   59 1  
    64   33   60 1  
    65   33   61 1  
    66   34   62 1  
    67   34   63 1  
    68   35   64 1  
    69   35   65 1  
    70   37   66 1  
    71   37   67 1  
    72   37   68 1  
@<TRIPOS>SUBSTRUCTURE
     1 SUB1        1 GROUP

