1ony_ligand
  -I-interpret- 

 73 74  0  0  0  0  0  0  0  0999 V2000
   35.6710   29.8200   23.1440 O   0  0  0  0  0
   34.7590   29.1810   23.5790 C   0  0  0  0  0
   33.9560   29.6860   24.5490 O   0  5  0  0  0
   34.4170   27.7530   23.0400 C   0  0  0  0  0
   34.5910   26.8000   23.8100 O   0  0  0  0  0
   33.9380   27.5670   21.7210 N   0  0  0  0  0
   33.4330   28.6840   21.0240 C   0  0  0  0  0
   32.0940   29.0880   21.3370 C   0  0  0  0  0
   31.4900   30.1770   20.7050 C   0  0  0  0  0
   32.1920   30.9170   19.7280 C   0  0  0  0  0
   33.5260   30.5440   19.4040 C   0  0  0  0  0
   34.1720   29.4380   20.0350 C   0  0  0  0  0
   35.5990   29.0990   19.6500 C   0  0  0  0  0
   35.7820   28.4400   18.2810 C   0  0  0  0  0
   37.2900   28.3820   17.9450 C   0  0  0  0  0
   37.7490   28.9720   16.9830 O   0  0  0  0  0
   38.0360   27.6410   18.7820 N   0  0  0  0  0
   31.5120   32.0760   19.0380 C   0  0  0  0  0
   30.9930   31.7420   17.5980 C   0  0  0  0  0
   30.3710   32.9350   17.0340 N   0  0  0  0  0
   30.4780   33.2110   15.3140 S   0  0  0  0  0
   29.3820   32.4670   14.7820 O   0  0  0  0  0
   31.8110   32.8000   14.9720 O   0  0  0  0  0
   30.2970   34.9470   15.0040 C   0  0  0  0  0
   30.0070   30.5400   17.6000 C   0  0  0  0  0
   30.4060   29.3810   17.5270 O   0  0  0  0  0
   28.7050   30.9010   17.7040 N   0  0  0  0  0
   27.6170   29.9150   17.7340 C   0  0  0  0  0
   26.4960   30.4050   18.6600 C   0  0  0  0  0
   26.9050   30.3720   20.1420 C   0  0  0  0  0
   26.2100   31.4580   20.9630 C   0  0  0  0  0
   26.0020   31.0420   22.4230 C   0  0  0  0  0
   33.9160   26.2600   21.0860 C   0  0  0  0  0
   32.6720   25.8320   20.4640 C   0  0  0  0  0
   32.5230   24.5920   19.8160 C   0  0  0  0  0
   33.6050   23.7000   19.7520 C   0  0  0  0  0
   34.8370   24.0550   20.3350 C   0  0  0  0  0
   35.0350   25.3020   21.0030 C   0  0  0  0  0
   36.4070   25.5070   21.5620 C   0  0  0  0  0
   36.9110   24.6060   22.1860 O   0  0  0  0  0
   37.0490   26.5370   21.4530 O   0  5  0  0  0
   31.5359   28.5342   22.0833 H   0  0  0  0  0
   30.4756   30.4563   20.9660 H   0  0  0  0  0
   34.0667   31.1149   18.6578 H   0  0  0  0  0
   36.1845   30.0302   19.6450 H   0  0  0  0  0
   36.0031   28.4060   20.4025 H   0  0  0  0  0
   35.3804   27.4162   18.3014 H   0  0  0  0  0
   35.2660   29.0299   17.5092 H   0  0  0  0  0
   39.0207   27.5547   18.6308 H   0  0  0  0  0
   37.6064   27.1759   19.5560 H   0  0  0  0  0
   30.6475   32.3885   19.6421 H   0  0  0  0  0
   32.2291   32.9056   18.9521 H   0  0  0  0  0
   31.8503   31.4569   16.9705 H   0  0  0  0  0
   29.8909   33.5844   17.6237 H   0  0  0  0  0
   30.3637   35.1262   13.9208 H   0  0  0  0  0
   29.3168   35.2922   15.3644 H   0  0  0  0  0
   31.0997   35.5040   15.5093 H   0  0  0  0  0
   28.4770   31.8729   17.7624 H   0  0  0  0  0
   27.2078   29.7825   16.7216 H   0  0  0  0  0
   27.9962   28.9549   18.1139 H   0  0  0  0  0
   26.2402   31.4423   18.3981 H   0  0  0  0  0
   25.6155   29.7581   18.5330 H   0  0  0  0  0
   26.6345   29.3947   20.5682 H   0  0  0  0  0
   27.9913   30.5270   20.2190 H   0  0  0  0  0
   26.8268   32.3687   20.9507 H   0  0  0  0  0
   25.2240   31.6668   20.5224 H   0  0  0  0  0
   25.5001   31.8601   22.9605 H   0  0  0  0  0
   25.3711   30.1422   22.4704 H   0  0  0  0  0
   26.9738   30.8441   22.8987 H   0  0  0  0  0
   31.8194   26.5004   20.5017 H   0  0  0  0  0
   31.5732   24.3257   19.3665 H   0  0  0  0  0
   33.4929   22.7425   19.2563 H   0  0  0  0  0
   35.6643   23.3571   20.2746 H   0  0  0  0  0
  1  2  2  0  0  0
  2  3  1  0  0  0
  2  4  1  0  0  0
  4  5  2  0  0  0
  4  6  1  0  0  0
  6  7  1  0  0  0
  6 33  1  0  0  0
  7  8  4  0  0  0
  7 12  4  0  0  0
  8  9  4  0  0  0
  9 10  4  0  0  0
 10 11  4  0  0  0
 10 18  1  0  0  0
 11 12  4  0  0  0
 12 13  1  0  0  0
 13 14  1  0  0  0
 14 15  1  0  0  0
 15 16  2  0  0  0
 15 17  1  0  0  0
 18 19  1  0  0  0
 19 20  1  0  0  0
 19 25  1  0  0  0
 20 21  1  0  0  0
 21 22  2  0  0  0
 21 23  2  0  0  0
 21 24  1  0  0  0
 25 26  2  0  0  0
 25 27  1  0  0  0
 27 28  1  0  0  0
 28 29  1  0  0  0
 29 30  1  0  0  0
 30 31  1  0  0  0
 31 32  1  0  0  0
 33 34  4  0  0  0
 33 38  4  0  0  0
 34 35  4  0  0  0
 35 36  4  0  0  0
 36 37  4  0  0  0
 37 38  4  0  0  0
 38 39  1  0  0  0
 39 40  2  0  0  0
 39 41  1  0  0  0
  8 42  1  0  0  0
  9 43  1  0  0  0
 11 44  1  0  0  0
 13 45  1  0  0  0
 13 46  1  0  0  0
 14 47  1  0  0  0
 14 48  1  0  0  0
 17 49  1  0  0  0
 17 50  1  0  0  0
 18 51  1  0  0  0
 18 52  1  0  0  0
 19 53  1  0  0  0
 20 54  1  0  0  0
 24 55  1  0  0  0
 24 56  1  0  0  0
 24 57  1  0  0  0
 27 58  1  0  0  0
 28 59  1  0  0  0
 28 60  1  0  0  0
 29 61  1  0  0  0
 29 62  1  0  0  0
 30 63  1  0  0  0
 30 64  1  0  0  0
 31 65  1  0  0  0
 31 66  1  0  0  0
 32 67  1  0  0  0
 32 68  1  0  0  0
 32 69  1  0  0  0
 34 70  1  0  0  0
 35 71  1  0  0  0
 36 72  1  0  0  0
 37 73  1  0  0  0
M  END
$$$$
