### 
### Created by X-TOOL on Tue Oct 25 01:17:07 2005
### 

@<TRIPOS>MOLECULE
1ony_ligand
   73    74     1     0     0
SMALL
GAST_HUCK


@<TRIPOS>ATOM
      1 O6         35.6710   29.8200   23.1440 O.co2     1 SUB1       -0.690
      2 C24        34.7590   29.1810   23.5790 C.2       1 SUB1       -0.082
      3 O7         33.9560   29.6860   24.5490 O.co2     1 SUB1       -0.690
      4 C8         34.4170   27.7530   23.0400 C.2       1 SUB1        0.118
      5 O5         34.5910   26.8000   23.8100 O.2       1 SUB1       -0.481
      6 N4         33.9380   27.5670   21.7210 N.am      1 SUB1       -0.171
      7 C2         33.4330   28.6840   21.0240 C.ar      1 SUB1        0.113
      8 C3         32.0940   29.0880   21.3370 C.ar      1 SUB1       -0.036
      9 C4         31.4900   30.1770   20.7050 C.ar      1 SUB1       -0.071
     10 C5         32.1920   30.9170   19.7280 C.ar      1 SUB1       -0.052
     11 C6         33.5260   30.5440   19.4040 C.ar      1 SUB1       -0.062
     12 C1         34.1720   29.4380   20.0350 C.ar      1 SUB1       -0.007
     13 C17        35.5990   29.0990   19.6500 C.3       1 SUB1       -0.003
     14 C18        35.7820   28.4400   18.2810 C.3       1 SUB1        0.046
     15 C19        37.2900   28.3820   17.9450 C.2       1 SUB1        0.175
     16 O1         37.7490   28.9720   16.9830 O.2       1 SUB1       -0.397
     17 N3         38.0360   27.6410   18.7820 N.am      1 SUB1       -0.301
     18 C7         31.5120   32.0760   19.0380 C.3       1 SUB1        0.013
     19 C9         30.9930   31.7420   17.5980 C.3       1 SUB1        0.134
     20 N1         30.3710   32.9350   17.0340 N.am      1 SUB1       -0.228
     21 S1         30.4780   33.2110   15.3140 S.o2      1 SUB1        0.038
     22 O4         29.3820   32.4670   14.7820 O.2       1 SUB1       -0.156
     23 O2         31.8110   32.8000   14.9720 O.2       1 SUB1       -0.156
     24 C20        30.2970   34.9470   15.0040 C.3       1 SUB1        0.073
     25 C11        30.0070   30.5400   17.6000 C.2       1 SUB1        0.200
     26 O8         30.4060   29.3810   17.5270 O.2       1 SUB1       -0.395
     27 N2         28.7050   30.9010   17.7040 N.am      1 SUB1       -0.285
     28 C12        27.6170   29.9150   17.7340 C.3       1 SUB1        0.031
     29 C13        26.4960   30.4050   18.6600 C.3       1 SUB1       -0.033
     30 C15        26.9050   30.3720   20.1420 C.3       1 SUB1       -0.052
     31 C14        26.2100   31.4580   20.9630 C.3       1 SUB1       -0.056
     32 C16        26.0020   31.0420   22.4230 C.3       1 SUB1       -0.065
     33 C26        33.9160   26.2600   21.0860 C.ar      1 SUB1        0.170
     34 C27        32.6720   25.8320   20.4640 C.ar      1 SUB1        0.012
     35 C28        32.5230   24.5920   19.8160 C.ar      1 SUB1       -0.036
     36 C29        33.6050   23.7000   19.7520 C.ar      1 SUB1       -0.035
     37 C30        34.8370   24.0550   20.3350 C.ar      1 SUB1       -0.009
     38 C25        35.0350   25.3020   21.0030 C.ar      1 SUB1        0.142
     39 C31        36.4070   25.5070   21.5620 C.2       1 SUB1        0.198
     40 O9         36.9110   24.6060   22.1860 O.co2     1 SUB1       -0.463
     41 O10        37.0490   26.5370   21.4530 O.co2     1 SUB1       -0.463
     42 H81        31.5359   28.5342   22.0833 H         1 SUB1        0.054
     43 H91        30.4756   30.4563   20.9660 H         1 SUB1        0.049
     44 H111       34.0667   31.1149   18.6578 H         1 SUB1        0.048
     45 H131       36.1845   30.0302   19.6450 H         1 SUB1        0.044
     46 H132       36.0031   28.4060   20.4025 H         1 SUB1        0.044
     47 H141       35.3804   27.4162   18.3014 H         1 SUB1        0.052
     48 H142       35.2660   29.0299   17.5092 H         1 SUB1        0.052
     49 H171       39.0207   27.5547   18.6308 H         1 SUB1        0.181
     50 H172       37.6064   27.1759   19.5560 H         1 SUB1        0.181
     51 H181       30.6475   32.3885   19.6421 H         1 SUB1        0.046
     52 H182       32.2291   32.9056   18.9521 H         1 SUB1        0.046
     53 H191       31.8503   31.4569   16.9705 H         1 SUB1        0.078
     54 H201       29.8909   33.5844   17.6237 H         1 SUB1        0.170
     55 H241       30.3637   35.1262   13.9208 H         1 SUB1        0.048
     56 H242       29.3168   35.2922   15.3644 H         1 SUB1        0.048
     57 H243       31.0997   35.5040   15.5093 H         1 SUB1        0.048
     58 H271       28.4770   31.8729   17.7624 H         1 SUB1        0.185
     59 H281       27.2078   29.7825   16.7216 H         1 SUB1        0.052
     60 H282       27.9962   28.9549   18.1139 H         1 SUB1        0.052
     61 H291       26.2402   31.4423   18.3981 H         1 SUB1        0.029
     62 H292       25.6155   29.7581   18.5330 H         1 SUB1        0.029
     63 H301       26.6345   29.3947   20.5682 H         1 SUB1        0.027
     64 H302       27.9913   30.5270   20.2190 H         1 SUB1        0.027
     65 H311       26.8268   32.3687   20.9507 H         1 SUB1        0.026
     66 H312       25.2240   31.6668   20.5224 H         1 SUB1        0.026
     67 H321       25.5001   31.8601   22.9605 H         1 SUB1        0.023
     68 H322       25.3711   30.1422   22.4704 H         1 SUB1        0.023
     69 H323       26.9738   30.8441   22.8987 H         1 SUB1        0.023
     70 H341       31.8194   26.5004   20.5017 H         1 SUB1        0.065
     71 H351       31.5732   24.3257   19.3665 H         1 SUB1        0.086
     72 H361       33.4929   22.7425   19.2563 H         1 SUB1        0.065
     73 H371       35.6643   23.3571   20.2746 H         1 SUB1        0.086
@<TRIPOS>BOND
     1    1    2 2  
     2    2    3 2  
     3    2    4 1  
     4    4    5 2  
     5    4    6 am 
     6    6    7 1  
     7    6   33 1  
     8    7    8 ar 
     9    7   12 ar 
    10    8    9 ar 
    11    9   10 ar 
    12   10   11 ar 
    13   10   18 1  
    14   11   12 ar 
    15   12   13 1  
    16   13   14 1  
    17   14   15 1  
    18   15   16 2  
    19   15   17 am 
    20   18   19 1  
    21   19   20 1  
    22   19   25 1  
    23   20   21 am 
    24   21   22 2  
    25   21   23 2  
    26   21   24 1  
    27   25   26 2  
    28   25   27 am 
    29   27   28 1  
    30   28   29 1  
    31   29   30 1  
    32   30   31 1  
    33   31   32 1  
    34   33   34 ar 
    35   33   38 ar 
    36   34   35 ar 
    37   35   36 ar 
    38   36   37 ar 
    39   37   38 ar 
    40   38   39 1  
    41   39   40 2  
    42   39   41 2  
    43    8   42 1  
    44    9   43 1  
    45   11   44 1  
    46   13   45 1  
    47   13   46 1  
    48   14   47 1  
    49   14   48 1  
    50   17   49 1  
    51   17   50 1  
    52   18   51 1  
    53   18   52 1  
    54   19   53 1  
    55   20   54 1  
    56   24   55 1  
    57   24   56 1  
    58   24   57 1  
    59   27   58 1  
    60   28   59 1  
    61   28   60 1  
    62   29   61 1  
    63   29   62 1  
    64   30   63 1  
    65   30   64 1  
    66   31   65 1  
    67   31   66 1  
    68   32   67 1  
    69   32   68 1  
    70   32   69 1  
    71   34   70 1  
    72   35   71 1  
    73   36   72 1  
    74   37   73 1  
@<TRIPOS>SUBSTRUCTURE
     1 SUB1        1 GROUP

