### 
### Created by X-TOOL on Mon Oct 24 22:41:37 2005
### 

@<TRIPOS>MOLECULE
1qbo_ligand
   65    69     1     0     0
SMALL
GAST_HUCK


@<TRIPOS>ATOM
      1 N1         19.9720    2.2570   54.3110 N.pl3     1 SUB1       -0.200
      2 C1         20.0620    1.5510   55.3560 C.cat     1 SUB1        0.316
      3 N2         18.9850    0.7930   55.7530 N.pl3     1 SUB1       -0.200
      4 C2         21.1670    1.5710   56.1090 C.ar      1 SUB1        0.184
      5 C3         22.2750    2.3240   55.6880 C.ar      1 SUB1       -0.003
      6 C4         23.4470    2.3680   56.4640 C.ar      1 SUB1       -0.021
      7 C5         24.4830    3.1160   56.0120 C.ar      1 SUB1       -0.052
      8 C6         25.6730    3.1150   56.7850 C.ar      1 SUB1       -0.013
      9 C7         25.7470    2.3730   57.9730 C.ar      1 SUB1       -0.054
     10 C8         24.6480    1.6250   58.4160 C.ar      1 SUB1       -0.057
     11 C9         23.5150    1.6290   57.6640 C.ar      1 SUB1       -0.022
     12 C10        22.4050    0.8770   58.0950 C.ar      1 SUB1       -0.052
     13 C11        21.2260    0.8620   57.3340 C.ar      1 SUB1       -0.009
     14 C12        26.7860    3.8890   56.3190 C.3       1 SUB1        0.090
     15 N21        28.0440    3.2560   56.7410 N.pl3     1 SUB1       -0.225
     16 C21        28.9560    3.6620   57.8740 C.2       1 SUB1        0.118
     17 C22        28.7270    4.7860   58.7280 C.3       1 SUB1        0.017
     18 N22        30.0210    2.8670   57.9880 N.2       1 SUB1       -0.325
     19 C23        29.9120    1.9710   57.0550 C.ar      1 SUB1        0.012
     20 C24        30.7690    0.9040   56.7730 C.ar      1 SUB1       -0.071
     21 C25        30.5030    0.0380   55.7080 C.ar      1 SUB1       -0.047
     22 C26        29.3430    0.2150   54.9280 C.ar      1 SUB1        0.077
     23 C27        28.4660    1.2800   55.2080 C.ar      1 SUB1       -0.015
     24 C28        28.7530    2.1720   56.2730 C.ar      1 SUB1        0.074
     25 O          29.2120   -0.7000   53.9230 O.3       1 SUB1       -0.322
     26 C31        30.3250   -1.5990   53.9140 C.3       1 SUB1        0.083
     27 C32        31.4760   -1.0950   53.0590 C.3       1 SUB1       -0.004
     28 C33        31.4740   -1.5830   51.6030 C.3       1 SUB1        0.032
     29 N31        31.2110   -3.0350   51.5630 N.3       1 SUB1       -0.218
     30 C34        29.9460   -3.4930   52.1910 C.3       1 SUB1        0.032
     31 C35        29.8670   -3.0210   53.6270 C.3       1 SUB1       -0.004
     32 C36        32.0730   -3.8860   50.9870 C.2       1 SUB1        0.075
     33 N32        31.8250   -5.3090   50.9520 N.2       1 SUB1       -0.395
     34 C37        33.2880   -3.3880   50.4050 C.3       1 SUB1        0.015
     35 H11        19.1132    2.2291   53.7430 H         1 SUB1        0.192
     36 H12        20.7575    2.8601   54.0277 H         1 SUB1        0.192
     37 H31        19.0478    0.2143   56.6028 H         1 SUB1        0.192
     38 H32        18.1158    0.8041   55.2005 H         1 SUB1        0.192
     39 H51        22.2265    2.8763   54.7565 H         1 SUB1        0.065
     40 H71        24.4056    3.6918   55.0968 H         1 SUB1        0.053
     41 H91        26.6624    2.3782   58.5535 H         1 SUB1        0.059
     42 H101       24.6998    1.0561   59.3373 H         1 SUB1        0.062
     43 H121       22.4614    0.3087   59.0163 H         1 SUB1        0.062
     44 H131       20.3617    0.3087   57.6831 H         1 SUB1        0.064
     45 H141       26.7279    4.9031   56.7411 H         1 SUB1        0.077
     46 H142       26.7566    3.9466   55.2209 H         1 SUB1        0.077
     47 H171       29.5390    4.8567   59.4667 H         1 SUB1        0.049
     48 H172       27.7667    4.6606   59.2496 H         1 SUB1        0.049
     49 H173       28.6992    5.7053   58.1246 H         1 SUB1        0.049
     50 H201       31.6489    0.7461   57.3861 H         1 SUB1        0.052
     51 H211       31.1895   -0.7700   55.4823 H         1 SUB1        0.046
     52 H231       27.5723    1.4183   54.6104 H         1 SUB1        0.045
     53 H261       30.7144   -1.6155   54.9426 H         1 SUB1        0.065
     54 H271       32.4160   -1.4237   53.5263 H         1 SUB1        0.031
     55 H272       31.4362    0.0042   53.0491 H         1 SUB1        0.031
     56 H281       32.4536   -1.3766   51.1472 H         1 SUB1        0.050
     57 H282       30.6897   -1.0542   51.0416 H         1 SUB1        0.050
     58 H301       29.9076   -4.5921   52.1684 H         1 SUB1        0.050
     59 H302       29.0937   -3.0847   51.6282 H         1 SUB1        0.050
     60 H311       28.8172   -3.1019   53.9453 H         1 SUB1        0.031
     61 H312       30.4871   -3.6978   54.2331 H         1 SUB1        0.031
     62 H331       32.4901   -5.9258   50.5124 H         1 SUB1        0.059
     63 H341       33.8632   -4.2258   49.9841 H         1 SUB1        0.052
     64 H342       33.8861   -2.8849   51.1791 H         1 SUB1        0.052
     65 H343       33.0453   -2.6719   49.6061 H         1 SUB1        0.052
@<TRIPOS>BOND
     1    1    2 1  
     2    2    4 1  
     3    2    3 1  
     4    4   13 ar 
     5    4    5 ar 
     6    5    6 ar 
     7    6   11 ar 
     8    6    7 ar 
     9    7    8 ar 
    10    8   14 1  
    11    8    9 ar 
    12    9   10 ar 
    13   10   11 ar 
    14   11   12 ar 
    15   12   13 ar 
    16   14   15 1  
    17   15   24 1  
    18   15   16 1  
    19   16   18 2  
    20   16   17 1  
    21   18   19 1  
    22   19   24 ar 
    23   19   20 ar 
    24   20   21 ar 
    25   21   22 ar 
    26   22   25 1  
    27   22   23 ar 
    28   23   24 ar 
    29   25   26 1  
    30   26   31 1  
    31   26   27 1  
    32   27   28 1  
    33   28   29 1  
    34   29   32 1  
    35   29   30 1  
    36   30   31 1  
    37   32   34 1  
    38   32   33 2  
    39    1   35 1  
    40    1   36 1  
    41    3   37 1  
    42    3   38 1  
    43    5   39 1  
    44    7   40 1  
    45    9   41 1  
    46   10   42 1  
    47   12   43 1  
    48   13   44 1  
    49   14   45 1  
    50   14   46 1  
    51   17   47 1  
    52   17   48 1  
    53   17   49 1  
    54   20   50 1  
    55   21   51 1  
    56   23   52 1  
    57   26   53 1  
    58   27   54 1  
    59   27   55 1  
    60   28   56 1  
    61   28   57 1  
    62   30   58 1  
    63   30   59 1  
    64   31   60 1  
    65   31   61 1  
    66   33   62 1  
    67   34   63 1  
    68   34   64 1  
    69   34   65 1  
@<TRIPOS>SUBSTRUCTURE
     1 SUB1        1 GROUP

