2bjm_ligand
  -I-interpret- 

 25 27  0  0  0  0  0  0  0  0999 V2000
   37.9990   76.6160   31.7380 C   0  0  0  0  0
   38.3950   77.9470   31.6960 C   0  0  0  0  0
   39.6240   78.3030   32.2400 C   0  0  0  0  0
   40.4690   77.3730   32.8280 C   0  0  0  0  0
   41.3660   72.8260   34.0850 C   0  0  0  0  0
   40.9900   71.4860   34.1350 C   0  0  0  0  0
   39.7680   71.0880   33.5970 C   0  0  0  0  0
   38.9250   72.0330   33.0130 C   0  0  0  0  0
   38.4640   74.3310   32.3780 C   0  0  0  0  0
   37.3900   74.0020   31.9010 O   0  0  0  0  0
   40.9040   75.1020   33.4520 C   0  0  0  0  0
   40.5220   73.7670   33.5000 C   0  0  0  0  0
   39.2970   73.3760   32.9620 C   0  0  0  0  0
   38.8400   75.6680   32.3250 C   0  0  0  0  0
   40.0690   76.0460   32.8680 C   0  0  0  0  0
   37.0455   76.3159   31.3188 H   0  0  0  0  0
   37.7550   78.6971   31.2456 H   0  0  0  0  0
   39.9322   79.3416   32.2035 H   0  0  0  0  0
   41.4213   77.6772   33.2471 H   0  0  0  0  0
   42.3170   73.1372   34.5020 H   0  0  0  0  0
   41.6467   70.7542   34.5915 H   0  0  0  0  0
   39.4730   70.0455   33.6323 H   0  0  0  0  0
   37.9742   71.7215   32.5959 H   0  0  0  0  0
   36.9535   74.7683   31.5479 H   0  0  0  0  0
   41.8558   75.4075   33.8712 H   0  0  0  0  0
  1  2  4  0  0  0
 14  1  4  0  0  0
  2  3  4  0  0  0
  3  4  4  0  0  0
  4 15  4  0  0  0
  6  5  4  0  0  0
  5 12  4  0  0  0
  7  6  4  0  0  0
  8  7  4  0  0  0
 13  8  4  0  0  0
  9 10  1  0  0  0
  9 13  4  0  0  0
  9 14  4  0  0  0
 12 11  4  0  0  0
 11 15  4  0  0  0
 12 13  4  0  0  0
 14 15  4  0  0  0
  1 16  1  0  0  0
  2 17  1  0  0  0
  3 18  1  0  0  0
  4 19  1  0  0  0
  5 20  1  0  0  0
  6 21  1  0  0  0
  7 22  1  0  0  0
  8 23  1  0  0  0
 10 24  1  0  0  0
 11 25  1  0  0  0
M  END
$$$$
