### 
### Created by X-TOOL on Tue Oct 25 01:19:31 2005
### 

@<TRIPOS>MOLECULE
2bjm_ligand
   25    27     1     0     0
SMALL
GAST_HUCK


@<TRIPOS>ATOM
      1 C1         37.9990   76.6160   31.7380 C.ar      1 SUB1       -0.054
      2 C2         38.3950   77.9470   31.6960 C.ar      1 SUB1       -0.065
      3 C3         39.6240   78.3030   32.2400 C.ar      1 SUB1       -0.066
      4 C4         40.4690   77.3730   32.8280 C.ar      1 SUB1       -0.061
      5 C5         41.3660   72.8260   34.0850 C.ar      1 SUB1       -0.061
      6 C6         40.9900   71.4860   34.1350 C.ar      1 SUB1       -0.066
      7 C7         39.7680   71.0880   33.5970 C.ar      1 SUB1       -0.065
      8 C8         38.9250   72.0330   33.0130 C.ar      1 SUB1       -0.054
      9 C9         38.4640   74.3310   32.3780 C.ar      1 SUB1        0.120
     10 O9         37.3900   74.0020   31.9010 O.3       1 SUB1       -0.319
     11 C10        40.9040   75.1020   33.4520 C.ar      1 SUB1       -0.068
     12 C11        40.5220   73.7670   33.5000 C.ar      1 SUB1       -0.032
     13 C12        39.2970   73.3760   32.9620 C.ar      1 SUB1        0.021
     14 C13        38.8400   75.6680   32.3250 C.ar      1 SUB1        0.021
     15 C14        40.0690   76.0460   32.8680 C.ar      1 SUB1       -0.032
     16 H11        37.0455   76.3159   31.3188 H         1 SUB1        0.064
     17 H21        37.7550   78.6971   31.2456 H         1 SUB1        0.057
     18 H31        39.9322   79.3416   32.2035 H         1 SUB1        0.061
     19 H41        41.4213   77.6772   33.2471 H         1 SUB1        0.058
     20 H51        42.3170   73.1372   34.5020 H         1 SUB1        0.058
     21 H61        41.6467   70.7542   34.5915 H         1 SUB1        0.061
     22 H71        39.4730   70.0455   33.6323 H         1 SUB1        0.057
     23 H81        37.9742   71.7215   32.5959 H         1 SUB1        0.064
     24 H101       36.9535   74.7683   31.5479 H         1 SUB1        0.257
     25 H111       41.8558   75.4075   33.8712 H         1 SUB1        0.042
@<TRIPOS>BOND
     1    1    2 ar 
     2   14    1 ar 
     3    2    3 ar 
     4    3    4 ar 
     5    4   15 ar 
     6    6    5 ar 
     7    5   12 ar 
     8    7    6 ar 
     9    8    7 ar 
    10   13    8 ar 
    11    9   10 1  
    12    9   13 ar 
    13    9   14 ar 
    14   12   11 ar 
    15   11   15 ar 
    16   12   13 ar 
    17   14   15 ar 
    18    1   16 1  
    19    2   17 1  
    20    3   18 1  
    21    4   19 1  
    22    5   20 1  
    23    6   21 1  
    24    7   22 1  
    25    8   23 1  
    26   10   24 1  
    27   11   25 1  
@<TRIPOS>SUBSTRUCTURE
     1 SUB1        1 GROUP

