1q54_ligand
  -I-interpret- 

 26 25  0  0  0  0  0  0  0  0999 V2000
    9.3570   10.2090   13.0290 O   0  0  0  0  0
   11.8560    2.8650   10.9670 O   0  0  0  0  0
    9.8540    1.6410   10.8650 O   0  5  0  0  0
   10.9590    2.0290   12.9380 O   0  5  0  0  0
   10.6890    2.6520   11.6000 P   0  0  0  0  0
    9.9440    3.9800   11.7780 O   0  0  0  0  0
   11.0340    6.1220   11.5380 O   0  0  0  0  0
   11.7170    4.5940   13.2600 O   0  5  0  0  0
   10.6270    5.2160   12.4240 P   0  0  0  0  0
   10.3350    9.4300   15.3610 C   0  0  0  0  0
   11.0890    8.2680   13.3380 C   0  0  0  0  0
    8.8750    6.8560   13.0410 C   0  0  0  0  0
    8.7600    7.8970   14.1700 C   0  0  0  0  0
    9.8540    8.9860   13.9510 C   0  0  0  0  0
    9.6200    5.7080   13.4550 O   0  0  0  0  0
    8.7290    9.3740   16.2740 Br  0  0  0  0  0
   10.0625   10.8377   12.9315 H   0  0  0  0  0
   11.0629    8.7265   15.7913 H   0  0  0  0  0
   10.7547   10.4467   15.3547 H   0  0  0  0  0
   11.3898    7.4437   14.0013 H   0  0  0  0  0
   10.8323    7.8575   12.3503 H   0  0  0  0  0
   11.9259    8.9756   13.2440 H   0  0  0  0  0
    7.8676    6.5268   12.7466 H   0  0  0  0  0
    9.3880    7.3092   12.1800 H   0  0  0  0  0
    7.7683    8.3722   14.1457 H   0  0  0  0  0
    8.9211    7.4151   15.1456 H   0  0  0  0  0
 14  1  1  0  0  0
  5  2  2  0  0  0
  6  5  1  0  0  0
  9  6  1  0  0  0
 13 12  1  0  0  0
 14 13  1  0  0  0
 12 15  1  0  0  0
 10 16  1  0  0  0
 15  9  1  0  0  0
 14 11  1  0  0  0
 14 10  1  0  0  0
  9  8  1  0  0  0
  9  7  2  0  0  0
  5  4  1  0  0  0
  5  3  1  0  0  0
  1 17  1  0  0  0
 10 18  1  0  0  0
 10 19  1  0  0  0
 11 20  1  0  0  0
 11 21  1  0  0  0
 11 22  1  0  0  0
 12 23  1  0  0  0
 12 24  1  0  0  0
 13 25  1  0  0  0
 13 26  1  0  0  0
M  END
$$$$
