### 
### Created by X-TOOL on Mon Oct 24 23:19:33 2005
### 

@<TRIPOS>MOLECULE
1q54_ligand
   26    25     1     0     0
SMALL
GAST_HUCK


@<TRIPOS>ATOM
      1 O1          9.3570   10.2090   13.0290 O.3       1 SUB1       -0.388
      2 O2         11.8560    2.8650   10.9670 O.co2     1 SUB1       -0.616
      3 O3          9.8540    1.6410   10.8650 O.co2     1 SUB1       -0.616
      4 O4         10.9590    2.0290   12.9380 O.co2     1 SUB1       -0.616
      5 P5         10.6890    2.6520   11.6000 P.3       1 SUB1        0.158
      6 O6          9.9440    3.9800   11.7780 O.3       1 SUB1       -0.257
      7 O7         11.0340    6.1220   11.5380 O.co2     1 SUB1       -0.457
      8 O8         11.7170    4.5940   13.2600 O.co2     1 SUB1       -0.457
      9 P9         10.6270    5.2160   12.4240 P.3       1 SUB1        0.372
     10 C10        10.3350    9.4300   15.3610 C.3       1 SUB1        0.032
     11 C11        11.0890    8.2680   13.3380 C.3       1 SUB1       -0.035
     12 C12         8.8750    6.8560   13.0410 C.3       1 SUB1        0.085
     13 C13         8.7600    7.8970   14.1700 C.3       1 SUB1        0.006
     14 C14         9.8540    8.9860   13.9510 C.3       1 SUB1        0.075
     15 O15         9.6200    5.7080   13.4550 O.3       1 SUB1       -0.255
     16 BR          8.7290    9.3740   16.2740 Br        1 SUB1       -0.089
     17 H11        10.0625   10.8377   12.9315 H         1 SUB1        0.210
     18 H101       11.0629    8.7265   15.7913 H         1 SUB1        0.041
     19 H102       10.7547   10.4467   15.3547 H         1 SUB1        0.041
     20 H111       11.3898    7.4437   14.0013 H         1 SUB1        0.026
     21 H112       10.8323    7.8575   12.3503 H         1 SUB1        0.026
     22 H113       11.9259    8.9756   13.2440 H         1 SUB1        0.026
     23 H121        7.8676    6.5268   12.7466 H         1 SUB1        0.063
     24 H122        9.3880    7.3092   12.1800 H         1 SUB1        0.063
     25 H131        7.7683    8.3722   14.1457 H         1 SUB1        0.032
     26 H132        8.9211    7.4151   15.1456 H         1 SUB1        0.032
@<TRIPOS>BOND
     1   14    1 1  
     2    5    2 2  
     3    6    5 1  
     4    9    6 1  
     5   13   12 1  
     6   14   13 1  
     7   12   15 1  
     8   10   16 1  
     9   15    9 1  
    10   14   11 1  
    11   14   10 1  
    12    9    8 2  
    13    9    7 2  
    14    5    4 2  
    15    5    3 2  
    16    1   17 1  
    17   10   18 1  
    18   10   19 1  
    19   11   20 1  
    20   11   21 1  
    21   11   22 1  
    22   12   23 1  
    23   12   24 1  
    24   13   25 1  
    25   13   26 1  
@<TRIPOS>SUBSTRUCTURE
     1 SUB1        1 GROUP

