1vja_ligand
  -I-interpret- 

 61 62  0  0  0  0  0  0  0  0999 V2000
   26.6200   11.5010   30.3330 O   0  0  0  0  0
   27.6950   11.4140   31.2160 C   0  0  0  0  0
   28.9390   10.5140   31.0670 C   0  0  0  0  0
   30.0860   11.4000   31.0500 N   0  0  0  0  0
   31.4060   10.9170   30.9290 C   0  0  0  0  0
   32.5150   11.9670   30.9090 C   0  0  0  0  0
   33.5050   11.7890   29.8860 N   0  0  0  0  0
   33.4490   12.0880   28.2590 S   0  0  0  0  0
   32.0990   11.1390   27.5200 C   0  0  0  0  0
   32.1310   11.3430   26.0080 C   0  0  0  0  0
   31.8260   12.6110   25.3700 C   0  0  0  0  0
   31.8810   12.7340   23.9270 C   0  0  0  0  0
   32.2400   11.5820   23.1410 C   0  0  0  0  0
   32.5410   10.3240   23.7700 C   0  0  0  0  0
   32.4870   10.2030   25.2030 C   0  0  0  0  0
   33.1630   13.4880   28.1530 O   0  0  0  0  0
   34.8170   11.6920   27.8400 O   0  0  0  0  0
   33.3410   12.0460   32.1970 C   0  0  0  0  0
   32.4440   12.2230   33.2660 O   0  0  0  0  0
   31.6740    9.7320   30.8350 O   0  0  0  0  0
   28.8140    9.7060   29.7820 C   0  0  0  0  0
   28.9940   10.2470   28.7110 O   0  0  0  0  0
   28.5130    8.3620   29.9660 N   0  0  0  0  0
   28.3800    7.4570   28.8450 C   0  0  0  0  0
   29.6510    6.6940   28.4840 C   0  0  0  0  0
   29.7260    5.2930   28.7870 C   0  0  0  0  0
   30.8930    4.5330   28.4710 C   0  0  0  0  0
   32.0570    5.1440   27.8310 C   0  0  0  0  0
   32.0060    6.5630   27.5140 C   0  0  0  0  0
   30.8100    7.3170   27.8420 C   0  0  0  0  0
   33.1900    4.3320   27.5450 C   0  3  0  0  0
   33.1990    3.0170   27.8500 N   0  0  0  0  0
   34.3300    4.7580   26.9660 N   0  0  0  0  0
   25.9903   12.1308   30.6636 H   0  0  0  0  0
   27.2496   11.1272   32.1800 H   0  0  0  0  0
   28.0907   12.4380   31.2851 H   0  0  0  0  0
   29.0166    9.8247   31.9207 H   0  0  0  0  0
   29.9368   12.3858   31.1265 H   0  0  0  0  0
   32.0203   12.9365   30.7500 H   0  0  0  0  0
   34.3766   11.4221   30.2110 H   0  0  0  0  0
   31.1366   11.4898   27.9209 H   0  0  0  0  0
   32.2259   10.0714   27.7526 H   0  0  0  0  0
   31.5561   13.4689   25.9752 H   0  0  0  0  0
   31.6553   13.6791   23.4465 H   0  0  0  0  0
   32.2840   11.6640   22.0610 H   0  0  0  0  0
   32.8088    9.4661   23.1640 H   0  0  0  0  0
   32.7141    9.2545   25.6762 H   0  0  0  0  0
   34.0360   12.8970   32.1455 H   0  0  0  0  0
   33.9106   11.1152   32.3353 H   0  0  0  0  0
   32.9302   12.2755   34.0805 H   0  0  0  0  0
   28.3854    8.0124   30.8942 H   0  0  0  0  0
   28.0718    8.0432   27.9667 H   0  0  0  0  0
   27.5979    6.7229   29.0888 H   0  0  0  0  0
   28.8837    4.8042   29.2631 H   0  0  0  0  0
   30.9165    3.4763   28.7117 H   0  0  0  0  0
   32.8498    7.0505   27.0393 H   0  0  0  0  0
   30.7737    8.3740   27.6043 H   0  0  0  0  0
   34.0279    2.4443   27.6358 H   0  0  0  0  0
   32.3770    2.5864   28.2970 H   0  0  0  0  0
   34.4305    5.7457   26.6918 H   0  0  0  0  0
   35.1008    4.0958   26.7976 H   0  0  0  0  0
  1  2  1  0  0  0
  2  3  1  0  0  0
  3  4  1  0  0  0
  3 21  1  0  0  0
  4  5  1  0  0  0
  5  6  1  0  0  0
  5 20  2  0  0  0
  6  7  1  0  0  0
  6 18  1  0  0  0
  7  8  1  0  0  0
  8  9  1  0  0  0
  8 16  2  0  0  0
  8 17  2  0  0  0
  9 10  1  0  0  0
 10 11  4  0  0  0
 10 15  4  0  0  0
 11 12  4  0  0  0
 12 13  4  0  0  0
 13 14  4  0  0  0
 14 15  4  0  0  0
 18 19  1  0  0  0
 21 22  2  0  0  0
 21 23  1  0  0  0
 23 24  1  0  0  0
 24 25  1  0  0  0
 25 26  4  0  0  0
 25 30  4  0  0  0
 26 27  4  0  0  0
 27 28  4  0  0  0
 28 29  4  0  0  0
 28 31  1  0  0  0
 29 30  4  0  0  0
 31 32  1  0  0  0
 31 33  1  0  0  0
  1 34  1  0  0  0
  2 35  1  0  0  0
  2 36  1  0  0  0
  3 37  1  0  0  0
  4 38  1  0  0  0
  6 39  1  0  0  0
  7 40  1  0  0  0
  9 41  1  0  0  0
  9 42  1  0  0  0
 11 43  1  0  0  0
 12 44  1  0  0  0
 13 45  1  0  0  0
 14 46  1  0  0  0
 15 47  1  0  0  0
 18 48  1  0  0  0
 18 49  1  0  0  0
 19 50  1  0  0  0
 23 51  1  0  0  0
 24 52  1  0  0  0
 24 53  1  0  0  0
 26 54  1  0  0  0
 27 55  1  0  0  0
 29 56  1  0  0  0
 30 57  1  0  0  0
 32 58  1  0  0  0
 32 59  1  0  0  0
 33 60  1  0  0  0
 33 61  1  0  0  0
M  END
$$$$
