1hvr_ligand
  -I-interpret- 

 84 90  0  0  0  0  0  0  0  0999 V2000
   -7.9486   14.2583   25.7798 H   0  0  0  0  0
   -6.7899   15.6293   25.7129 H   0  0  0  0  0
   -8.4211   17.7640   25.9980 H   0  0  0  0  0
  -10.7563   17.4302   26.6265 H   0  0  0  0  0
  -10.7683   19.6926   27.1487 H   0  0  0  0  0
   -9.6885   18.0310   29.4144 H   0  0  0  0  0
  -11.6159   19.1929   28.8968 H   0  0  0  0  0
  -11.0661   16.1093   29.9842 H   0  0  0  0  0
   -8.2660   14.0486   30.1502 H   0  0  0  0  0
  -10.0260   13.6914   30.1896 H   0  0  0  0  0
  -10.4991   15.5390   24.8043 H   0  0  0  0  0
  -11.2494   15.9003   22.4432 H   0  0  0  0  0
  -10.6573   16.2650   20.0797 H   0  0  0  0  0
   -8.9373   16.6250   18.3173 H   0  0  0  0  0
   -6.5266   16.7237   18.8832 H   0  0  0  0  0
   -5.8075   16.4423   21.2625 H   0  0  0  0  0
   -6.3553   16.0155   23.6026 H   0  0  0  0  0
   -7.4245   17.4023   28.8336 H   0  0  0  0  0
   -7.6980   19.0262   28.1161 H   0  0  0  0  0
   -5.4586   16.1344   28.2957 H   0  0  0  0  0
   -3.3520   15.8491   26.9686 H   0  0  0  0  0
   -2.8182   17.4675   25.1487 H   0  0  0  0  0
   -4.3581   19.3657   24.6477 H   0  0  0  0  0
   -6.4766   19.6300   25.9382 H   0  0  0  0  0
  -11.2333   15.1203   27.1455 H   0  0  0  0  0
  -12.5154   16.1654   27.8461 H   0  0  0  0  0
  -13.4096   15.4167   30.2541 H   0  0  0  0  0
  -14.3533   13.3948   31.3995 H   0  0  0  0  0
  -13.7825   11.1093   30.5546 H   0  0  0  0  0
  -12.2928   10.8203   28.5810 H   0  0  0  0  0
  -11.3362   12.8367   27.4489 H   0  0  0  0  0
  -10.8426   13.6611   32.1501 H   0  0  0  0  0
  -11.7572   13.4410   34.3829 H   0  0  0  0  0
  -11.9244   14.2772   36.7454 H   0  0  0  0  0
  -10.5005   16.1916   37.4733 H   0  0  0  0  0
   -8.9245   17.3004   35.8920 H   0  0  0  0  0
   -7.9897   17.5247   33.6064 H   0  0  0  0  0
   -7.9425   16.7520   31.2366 H   0  0  0  0  0
   -8.6110   15.0600   27.9540 C   0  0  0  0  0
   -7.9390   14.0390   27.9410 O   0  0  0  0  0
   -8.4610   15.9230   26.9050 N   0  0  0  0  0
   -7.8540   15.3510   25.6960 C   0  0  0  0  0
   -8.6270   17.3880   27.0110 C   0  0  0  0  0
  -10.0290   17.9100   27.2980 C   0  0  0  0  0
   -9.9290   19.2740   26.9980 O   0  0  0  0  0
  -10.4610   17.6450   28.7330 C   0  0  0  0  0
  -11.6920   18.2540   29.0200 O   0  0  0  0  0
  -10.6570   16.1520   28.9640 C   0  0  0  0  0
   -9.4610   15.2940   29.0040 N   0  0  0  0  0
   -9.2710   14.4910   30.2150 C   0  0  0  0  0
   -8.3810   15.7300   24.3360 C   0  0  0  0  0
   -9.7690   15.7120   24.0220 C   0  0  0  0  0
  -10.1950   15.9190   22.6940 C   0  0  0  0  0
   -9.2190   16.1520   21.6930 C   0  0  0  0  0
   -9.6080   16.3040   20.3490 C   0  0  0  0  0
   -8.6260   16.5080   19.3490 C   0  0  0  0  0
   -7.2630   16.5620   19.6620 C   0  0  0  0  0
   -6.8600   16.4030   21.0060 C   0  0  0  0  0
   -7.8280   16.1920   22.0220 C   0  0  0  0  0
   -7.4080   15.9830   23.3460 C   0  0  0  0  0
   -7.4760   17.9720   27.8940 C   0  0  0  0  0
   -6.1240   17.8900   27.1930 C   0  0  0  0  0
   -5.2260   16.8260   27.4940 C   0  0  0  0  0
   -4.0290   16.6670   26.7500 C   0  0  0  0  0
   -3.7300   17.5850   25.7230 C   0  0  0  0  0
   -4.6070   18.6600   25.4320 C   0  0  0  0  0
   -5.8030   18.8110   26.1630 C   0  0  0  0  0
  -11.7120   15.4510   28.0790 C   0  0  0  0  0
  -12.3100   14.2480   28.7790 C   0  0  0  0  0
  -13.1670   14.4220   29.8980 C   0  0  0  0  0
  -13.7000   13.2810   30.5420 C   0  0  0  0  0
  -13.3740   11.9820   30.0580 C   0  0  0  0  0
  -12.5290   11.8140   28.9440 C   0  0  0  0  0
  -11.9920   12.9540   28.3040 C   0  0  0  0  0
   -9.3740   15.1480   31.5710 C   0  0  0  0  0
  -10.2280   14.4920   32.4770 C   0  0  0  0  0
  -10.2720   14.9260   33.8000 C   0  0  0  0  0
  -11.1560   14.2820   34.7090 C   0  0  0  0  0
  -11.2450   14.7480   36.0440 C   0  0  0  0  0
  -10.4350   15.8370   36.4510 C   0  0  0  0  0
   -9.5400   16.4750   35.5530 C   0  0  0  0  0
   -9.4550   16.0280   34.2120 C   0  0  0  0  0
   -8.6050   16.6910   33.2880 C   0  0  0  0  0
   -8.5740   16.2520   31.9620 C   0  0  0  0  0
 42  1  1  0  0  0
 42  2  1  0  0  0
 43  3  1  0  0  0
 44  4  1  0  0  0
 45  5  1  0  0  0
 46  6  1  0  0  0
 47  7  1  0  0  0
 48  8  1  0  0  0
 50  9  1  0  0  0
 50 10  1  0  0  0
 52 11  1  0  0  0
 53 12  1  0  0  0
 55 13  1  0  0  0
 56 14  1  0  0  0
 57 15  1  0  0  0
 58 16  1  0  0  0
 60 17  1  0  0  0
 61 18  1  0  0  0
 61 19  1  0  0  0
 63 20  1  0  0  0
 64 21  1  0  0  0
 65 22  1  0  0  0
 66 23  1  0  0  0
 67 24  1  0  0  0
 68 25  1  0  0  0
 68 26  1  0  0  0
 70 27  1  0  0  0
 71 28  1  0  0  0
 72 29  1  0  0  0
 73 30  1  0  0  0
 74 31  1  0  0  0
 76 32  1  0  0  0
 78 33  1  0  0  0
 79 34  1  0  0  0
 80 35  1  0  0  0
 81 36  1  0  0  0
 83 37  1  0  0  0
 84 38  1  0  0  0
 39 40  2  0  0  0
 39 41  1  0  0  0
 49 39  1  0  0  0
 41 42  1  0  0  0
 41 43  1  0  0  0
 42 51  1  0  0  0
 44 43  1  0  0  0
 43 61  1  0  0  0
 44 45  1  0  0  0
 46 44  1  0  0  0
 46 47  1  0  0  0
 48 46  1  0  0  0
 49 48  1  0  0  0
 48 68  1  0  0  0
 50 49  1  0  0  0
 75 50  1  0  0  0
 51 52  4  0  0  0
 51 60  4  0  0  0
 52 53  4  0  0  0
 53 54  4  0  0  0
 54 55  4  0  0  0
 59 54  4  0  0  0
 55 56  4  0  0  0
 57 56  4  0  0  0
 58 57  4  0  0  0
 59 58  4  0  0  0
 60 59  4  0  0  0
 61 62  1  0  0  0
 62 63  4  0  0  0
 62 67  4  0  0  0
 63 64  4  0  0  0
 64 65  4  0  0  0
 66 65  4  0  0  0
 67 66  4  0  0  0
 68 69  1  0  0  0
 69 70  4  0  0  0
 69 74  4  0  0  0
 70 71  4  0  0  0
 71 72  4  0  0  0
 73 72  4  0  0  0
 74 73  4  0  0  0
 76 75  4  0  0  0
 75 84  4  0  0  0
 77 76  4  0  0  0
 77 78  4  0  0  0
 82 77  4  0  0  0
 78 79  4  0  0  0
 80 79  4  0  0  0
 81 80  4  0  0  0
 82 81  4  0  0  0
 82 83  4  0  0  0
 83 84  4  0  0  0
M  END
$$$$
