### 
### Created by X-TOOL on Mon Oct 24 22:39:34 2005
### 

@<TRIPOS>MOLECULE
1hvr_ligand
   84    90     1     0     0
SMALL
GAST_HUCK


@<TRIPOS>ATOM
      1 H421       -7.9486   14.2583   25.7798 H         1 SUB1        0.068
      2 H422       -6.7899   15.6293   25.7129 H         1 SUB1        0.068
      3 H431       -8.4211   17.7640   25.9980 H         1 SUB1        0.061
      4 H441      -10.7563   17.4302   26.6265 H         1 SUB1        0.064
      5 H451      -10.7683   19.6926   27.1487 H         1 SUB1        0.210
      6 H461       -9.6885   18.0310   29.4144 H         1 SUB1        0.064
      7 H471      -11.6159   19.1929   28.8968 H         1 SUB1        0.210
      8 H481      -11.0661   16.1093   29.9842 H         1 SUB1        0.061
      9 H501       -8.2660   14.0486   30.1502 H         1 SUB1        0.068
     10 H502      -10.0260   13.6914   30.1896 H         1 SUB1        0.068
     11 H521      -10.4991   15.5390   24.8043 H         1 SUB1        0.059
     12 H531      -11.2494   15.9003   22.4432 H         1 SUB1        0.062
     13 H551      -10.6573   16.2650   20.0797 H         1 SUB1        0.062
     14 H561       -8.9373   16.6250   18.3173 H         1 SUB1        0.060
     15 H571       -6.5266   16.7237   18.8832 H         1 SUB1        0.061
     16 H581       -5.8075   16.4423   21.2625 H         1 SUB1        0.060
     17 H601       -6.3553   16.0155   23.6026 H         1 SUB1        0.053
     18 H611       -7.4245   17.4023   28.8336 H         1 SUB1        0.045
     19 H612       -7.6980   19.0262   28.1161 H         1 SUB1        0.045
     20 H631       -5.4586   16.1344   28.2957 H         1 SUB1        0.056
     21 H641       -3.3520   15.8491   26.9686 H         1 SUB1        0.060
     22 H651       -2.8182   17.4675   25.1487 H         1 SUB1        0.056
     23 H661       -4.3581   19.3657   24.6477 H         1 SUB1        0.060
     24 H671       -6.4766   19.6300   25.9382 H         1 SUB1        0.056
     25 H681      -11.2333   15.1203   27.1455 H         1 SUB1        0.045
     26 H682      -12.5154   16.1654   27.8461 H         1 SUB1        0.045
     27 H701      -13.4096   15.4167   30.2541 H         1 SUB1        0.056
     28 H711      -14.3533   13.3948   31.3995 H         1 SUB1        0.060
     29 H721      -13.7825   11.1093   30.5546 H         1 SUB1        0.056
     30 H731      -12.2928   10.8203   28.5810 H         1 SUB1        0.060
     31 H741      -11.3362   12.8367   27.4489 H         1 SUB1        0.056
     32 H761      -10.8426   13.6611   32.1501 H         1 SUB1        0.053
     33 H781      -11.7572   13.4410   34.3829 H         1 SUB1        0.060
     34 H791      -11.9244   14.2772   36.7454 H         1 SUB1        0.061
     35 H801      -10.5005   16.1916   37.4733 H         1 SUB1        0.060
     36 H811       -8.9245   17.3004   35.8920 H         1 SUB1        0.062
     37 H831       -7.9897   17.5247   33.6064 H         1 SUB1        0.062
     38 H841       -7.9425   16.7520   31.2366 H         1 SUB1        0.059
     39 C1         -8.6110   15.0600   27.9540 C.2       1 SUB1        0.267
     40 O1         -7.9390   14.0390   27.9410 O.2       1 SUB1       -0.400
     41 N2         -8.4610   15.9230   26.9050 N.am      1 SUB1       -0.240
     42 C2         -7.8540   15.3510   25.6960 C.3       1 SUB1        0.069
     43 C3         -8.6270   17.3880   27.0110 C.3       1 SUB1        0.085
     44 C4        -10.0290   17.9100   27.2980 C.3       1 SUB1        0.108
     45 O4         -9.9290   19.2740   26.9980 O.3       1 SUB1       -0.387
     46 C5        -10.4610   17.6450   28.7330 C.3       1 SUB1        0.108
     47 O5        -11.6920   18.2540   29.0200 O.3       1 SUB1       -0.387
     48 C6        -10.6570   16.1520   28.9640 C.3       1 SUB1        0.085
     49 N7         -9.4610   15.2940   29.0040 N.am      1 SUB1       -0.240
     50 C7         -9.2710   14.4910   30.2150 C.3       1 SUB1        0.069
     51 C20        -8.3810   15.7300   24.3360 C.ar      1 SUB1       -0.020
     52 C21        -9.7690   15.7120   24.0220 C.ar      1 SUB1       -0.055
     53 C22       -10.1950   15.9190   22.6940 C.ar      1 SUB1       -0.057
     54 C23        -9.2190   16.1520   21.6930 C.ar      1 SUB1       -0.022
     55 C24        -9.6080   16.3040   20.3490 C.ar      1 SUB1       -0.057
     56 C25        -8.6260   16.5080   19.3490 C.ar      1 SUB1       -0.063
     57 C26        -7.2630   16.5620   19.6620 C.ar      1 SUB1       -0.064
     58 C27        -6.8600   16.4030   21.0060 C.ar      1 SUB1       -0.058
     59 C28        -7.8280   16.1920   22.0220 C.ar      1 SUB1       -0.026
     60 C29        -7.4080   15.9830   23.3460 C.ar      1 SUB1       -0.053
     61 C31        -7.4760   17.9720   27.8940 C.3       1 SUB1        0.007
     62 C32        -6.1240   17.8900   27.1930 C.ar      1 SUB1       -0.041
     63 C33        -5.2260   16.8260   27.4940 C.ar      1 SUB1       -0.060
     64 C34        -4.0290   16.6670   26.7500 C.ar      1 SUB1       -0.069
     65 C35        -3.7300   17.5850   25.7230 C.ar      1 SUB1       -0.069
     66 C36        -4.6070   18.6600   25.4320 C.ar      1 SUB1       -0.069
     67 C37        -5.8030   18.8110   26.1630 C.ar      1 SUB1       -0.060
     68 C61       -11.7120   15.4510   28.0790 C.3       1 SUB1        0.007
     69 C62       -12.3100   14.2480   28.7790 C.ar      1 SUB1       -0.041
     70 C63       -13.1670   14.4220   29.8980 C.ar      1 SUB1       -0.060
     71 C64       -13.7000   13.2810   30.5420 C.ar      1 SUB1       -0.069
     72 C65       -13.3740   11.9820   30.0580 C.ar      1 SUB1       -0.069
     73 C66       -12.5290   11.8140   28.9440 C.ar      1 SUB1       -0.069
     74 C67       -11.9920   12.9540   28.3040 C.ar      1 SUB1       -0.060
     75 C70        -9.3740   15.1480   31.5710 C.ar      1 SUB1       -0.020
     76 C71       -10.2280   14.4920   32.4770 C.ar      1 SUB1       -0.053
     77 C72       -10.2720   14.9260   33.8000 C.ar      1 SUB1       -0.026
     78 C73       -11.1560   14.2820   34.7090 C.ar      1 SUB1       -0.058
     79 C74       -11.2450   14.7480   36.0440 C.ar      1 SUB1       -0.064
     80 C75       -10.4350   15.8370   36.4510 C.ar      1 SUB1       -0.063
     81 C76        -9.5400   16.4750   35.5530 C.ar      1 SUB1       -0.057
     82 C77        -9.4550   16.0280   34.2120 C.ar      1 SUB1       -0.022
     83 C78        -8.6050   16.6910   33.2880 C.ar      1 SUB1       -0.057
     84 C79        -8.5740   16.2520   31.9620 C.ar      1 SUB1       -0.055
@<TRIPOS>BOND
     1   42    1 1  
     2   42    2 1  
     3   43    3 1  
     4   44    4 1  
     5   45    5 1  
     6   46    6 1  
     7   47    7 1  
     8   48    8 1  
     9   50    9 1  
    10   50   10 1  
    11   52   11 1  
    12   53   12 1  
    13   55   13 1  
    14   56   14 1  
    15   57   15 1  
    16   58   16 1  
    17   60   17 1  
    18   61   18 1  
    19   61   19 1  
    20   63   20 1  
    21   64   21 1  
    22   65   22 1  
    23   66   23 1  
    24   67   24 1  
    25   68   25 1  
    26   68   26 1  
    27   70   27 1  
    28   71   28 1  
    29   72   29 1  
    30   73   30 1  
    31   74   31 1  
    32   76   32 1  
    33   78   33 1  
    34   79   34 1  
    35   80   35 1  
    36   81   36 1  
    37   83   37 1  
    38   84   38 1  
    39   39   40 2  
    40   39   41 am 
    41   49   39 am 
    42   41   42 1  
    43   41   43 1  
    44   42   51 1  
    45   44   43 1  
    46   43   61 1  
    47   44   45 1  
    48   46   44 1  
    49   46   47 1  
    50   48   46 1  
    51   49   48 1  
    52   48   68 1  
    53   50   49 1  
    54   75   50 1  
    55   51   52 ar 
    56   51   60 ar 
    57   52   53 ar 
    58   53   54 ar 
    59   54   55 ar 
    60   59   54 ar 
    61   55   56 ar 
    62   57   56 ar 
    63   58   57 ar 
    64   59   58 ar 
    65   60   59 ar 
    66   61   62 1  
    67   62   63 ar 
    68   62   67 ar 
    69   63   64 ar 
    70   64   65 ar 
    71   66   65 ar 
    72   67   66 ar 
    73   68   69 1  
    74   69   70 ar 
    75   69   74 ar 
    76   70   71 ar 
    77   71   72 ar 
    78   73   72 ar 
    79   74   73 ar 
    80   76   75 ar 
    81   75   84 ar 
    82   77   76 ar 
    83   77   78 ar 
    84   82   77 ar 
    85   78   79 ar 
    86   80   79 ar 
    87   81   80 ar 
    88   82   81 ar 
    89   82   83 ar 
    90   83   84 ar 
@<TRIPOS>SUBSTRUCTURE
     1 SUB1        1 GROUP

