### 
### Created by X-TOOL on Tue Oct 25 01:26:58 2005
### 

@<TRIPOS>MOLECULE
1joc_ligand
   30    30     1     0     0
SMALL
GAST_HUCK


@<TRIPOS>ATOM
      1 C1         30.0040   17.1000   10.6390 C.3       1 SUB1        0.133
      2 O1         28.9960   17.9910   11.1490 O.3       1 SUB1       -0.314
      3 C2         29.6480   15.6800   11.0510 C.3       1 SUB1        0.120
      4 O2         29.4800   15.6300   12.4800 O.3       1 SUB1       -0.386
      5 C3         30.7310   14.6940   10.6330 C.3       1 SUB1        0.133
      6 O3         30.3660   13.3990   11.0850 O.3       1 SUB1       -0.314
      7 C4         32.0830   15.0690   11.2280 C.3       1 SUB1        0.116
      8 O4         33.0840   14.1700   10.7450 O.3       1 SUB1       -0.386
      9 C5         32.4770   16.4900   10.8640 C.3       1 SUB1        0.113
     10 O5         33.6630   16.8180   11.5840 O.3       1 SUB1       -0.387
     11 C6         31.3720   17.5060   11.2020 C.3       1 SUB1        0.116
     12 O6         31.7240   18.7920   10.6780 O.3       1 SUB1       -0.386
     13 P1         27.7340   18.5010   10.2700 P.3       1 SUB1        0.206
     14 OP1        27.5730   19.9320   10.5990 O.co2     1 SUB1       -0.535
     15 OP2        26.5740   17.6920   10.6930 O.co2     1 SUB1       -0.535
     16 OP3        28.0880   18.2730    8.8360 O.co2     1 SUB1       -0.535
     17 P3         30.4040   12.1450   10.1020 P.3       1 SUB1        0.206
     18 O10        29.8750   11.0020   10.8720 O.co2     1 SUB1       -0.535
     19 O11        29.5600   12.4850    8.9370 O.co2     1 SUB1       -0.535
     20 O12        31.8330   11.9720    9.7440 O.co2     1 SUB1       -0.535
     21 H11        30.0460   17.1681    9.5419 H         1 SUB1        0.070
     22 H31        28.7098   15.3845   10.5586 H         1 SUB1        0.065
     23 H41        28.7823   16.2215   12.7366 H         1 SUB1        0.210
     24 H51        30.8249   14.6955    9.5371 H         1 SUB1        0.070
     25 H71        32.0247   15.0014   12.3243 H         1 SUB1        0.065
     26 H81        32.8608   13.2825   11.0003 H         1 SUB1        0.210
     27 H91        32.6690   16.5480    9.7825 H         1 SUB1        0.065
     28 H101       34.3554   16.2137   11.3435 H         1 SUB1        0.210
     29 H111       31.2940   17.5889   12.2961 H         1 SUB1        0.065
     30 H121       31.0398   19.4166   10.8885 H         1 SUB1        0.210
@<TRIPOS>BOND
     1    1    2 1  
     2    1    3 1  
     3    1   11 1  
     4    2   13 1  
     5    3    4 1  
     6    3    5 1  
     7    5    6 1  
     8    5    7 1  
     9    6   17 1  
    10    7    8 1  
    11    7    9 1  
    12    9   10 1  
    13    9   11 1  
    14   11   12 1  
    15   13   14 2  
    16   13   15 2  
    17   13   16 2  
    18   17   18 2  
    19   17   19 2  
    20   17   20 2  
    21    1   21 1  
    22    3   22 1  
    23    4   23 1  
    24    5   24 1  
    25    7   25 1  
    26    8   26 1  
    27    9   27 1  
    28   10   28 1  
    29   11   29 1  
    30   12   30 1  
@<TRIPOS>SUBSTRUCTURE
     1 SUB1        1 GROUP

