### 
### Created by X-TOOL on Tue Oct 25 00:06:42 2005
### 

@<TRIPOS>MOLECULE
1p1q_ligand
   23    23     1     0     0
SMALL
GAST_HUCK


@<TRIPOS>ATOM
      1 N          48.1640   25.1450   42.7800 N.4       1 SUB1        0.239
      2 CA         47.1230   26.2210   42.7750 C.3       1 SUB1        0.016
      3 C          46.7770   26.5840   44.2690 C.2       1 SUB1        0.077
      4 OT1        45.8330   27.3970   44.4690 O.co2     1 SUB1       -0.561
      5 OT2        47.5140   26.0870   45.1680 O.co2     1 SUB1       -0.561
      6 CB         45.8720   25.7340   42.0020 C.3       1 SUB1        0.019
      7 CG         46.1380   25.4240   40.5560 C.2       1 SUB1        0.037
      8 CD1        46.0410   26.2930   39.4350 C.2       1 SUB1        0.187
      9 CD2        46.6180   24.3030   39.9520 C.2       1 SUB1        0.123
     10 CE2        46.8980   22.9320   40.4510 C.3       1 SUB1        0.005
     11 OE1        45.5540   27.5140   39.6680 O.2       1 SUB1       -0.426
     12 NE1        46.4010   25.8480   38.2670 N.am      1 SUB1       -0.140
     13 OE2        46.7930   24.4970   38.5990 O.3       1 SUB1       -0.176
     14 H11        48.3927   24.9052   41.8280 H         1 SUB1        0.202
     15 H12        48.9959   25.4738   43.2445 H         1 SUB1        0.202
     16 H13        47.8096   24.3260   43.2486 H         1 SUB1        0.202
     17 H21        47.5126   27.1132   42.2631 H         1 SUB1        0.108
     18 H61        45.4960   24.8170   42.4790 H         1 SUB1        0.040
     19 H62        45.1033   26.5198   42.0418 H         1 SUB1        0.040
     20 H101       47.2837   22.3209   39.6217 H         1 SUB1        0.045
     21 H102       47.6538   22.9704   41.2492 H         1 SUB1        0.045
     22 H103       45.9728   22.4753   40.8322 H         1 SUB1        0.045
     23 H121       46.4054   26.3132   37.3818 H         1 SUB1        0.231
@<TRIPOS>BOND
     1    1    2 1  
     2    2    3 1  
     3    2    6 1  
     4    3    4 2  
     5    3    5 2  
     6    6    7 1  
     7    7    8 1  
     8    7    9 2  
     9    8   11 2  
    10    8   12 am 
    11    9   10 1  
    12    9   13 1  
    13   12   13 1  
    14    1   14 1  
    15    1   15 1  
    16    1   16 1  
    17    2   17 1  
    18    6   18 1  
    19    6   19 1  
    20   10   20 1  
    21   10   21 1  
    22   10   22 1  
    23   12   23 1  
@<TRIPOS>SUBSTRUCTURE
     1 SUB1        1 GROUP

