2flb_ligand
  -I-interpret- 

 39 42  0  0  0  0  0  0  0  0999 V2000
   12.7140    8.9120   47.5160 C   0  0  0  0  0
   12.4670    7.5450   47.2330 C   0  0  0  0  0
   11.6190    6.8280   48.0770 C   0  0  0  0  0
   11.0660    7.5150   49.1530 C   0  0  0  0  0
   11.2950    8.8410   49.4250 C   0  0  0  0  0
   12.1360    9.5930   48.5980 C   0  0  0  0  0
   13.6070    9.5990   46.6820 C   0  3  0  0  0
   13.7670   10.9040   46.8370 N   0  0  0  0  0
   14.3560    8.9660   45.7470 N   0  0  0  0  0
   10.2780    6.9860   50.0590 N   0  0  0  0  0
   10.6500    9.2140   50.5380 N   0  0  0  0  0
   10.0590    8.0470   50.8570 C   0  0  0  0  0
    9.2980    7.8660   52.0400 C   0  0  0  0  0
    8.8100    6.6260   52.4320 C   0  0  0  0  0
    8.9500    5.4750   51.6810 O   0  0  0  0  0
    8.1900    6.8730   53.6670 C   0  0  0  0  0
    8.2440    8.1670   54.0100 N   0  0  0  0  0
    8.9580    8.8050   52.9240 N   0  0  0  0  0
    7.4830    5.8660   54.3640 C   0  0  0  0  0
    6.7720    4.8930   53.6540 C   0  0  0  0  0
    6.0670    3.9200   54.3560 C   0  0  0  0  0
    6.0730    3.9110   55.7420 C   0  0  0  0  0
    6.7850    4.8850   56.4470 C   0  0  0  0  0
    7.5050    5.8810   55.7580 C   0  0  0  0  0
   12.9309    7.0634   46.3722 H   0  0  0  0  0
   11.3991    5.7750   47.9011 H   0  0  0  0  0
   12.3314   10.6491   48.7838 H   0  0  0  0  0
   14.4409   11.4073   46.2600 H   0  0  0  0  0
   13.2164   11.4062   47.5334 H   0  0  0  0  0
   15.0224    9.4945   45.1840 H   0  0  0  0  0
   14.2534    7.9610   45.6062 H   0  0  0  0  0
   10.6163   10.1189   51.0074 H   0  0  0  0  0
    9.8831    5.2905   51.5511 H   0  0  0  0  0
    7.8660    8.6054   54.8498 H   0  0  0  0  0
    6.7701    4.8968   52.5640 H   0  0  0  0  0
    5.5063    3.1598   53.8122 H   0  0  0  0  0
    5.5211    3.1425   56.2832 H   0  0  0  0  0
    6.7834    4.8742   57.5369 H   0  0  0  0  0
    8.0644    6.6431   56.3005 H   0  0  0  0  0
  1  2  4  0  0  0
  1  6  4  0  0  0
  1  7  1  0  0  0
  2  3  4  0  0  0
  3  4  4  0  0  0
  4  5  4  0  0  0
  4 10  1  0  0  0
  5  6  4  0  0  0
  5 11  1  0  0  0
  7  8  1  0  0  0
  7  9  1  0  0  0
 10 12  2  0  0  0
 11 12  1  0  0  0
 12 13  1  0  0  0
 13 14  1  0  0  0
 13 18  2  0  0  0
 14 15  1  0  0  0
 14 16  2  0  0  0
 16 17  1  0  0  0
 16 19  1  0  0  0
 17 18  1  0  0  0
 19 20  4  0  0  0
 19 24  4  0  0  0
 20 21  4  0  0  0
 21 22  4  0  0  0
 22 23  4  0  0  0
 23 24  4  0  0  0
  2 25  1  0  0  0
  3 26  1  0  0  0
  6 27  1  0  0  0
  8 28  1  0  0  0
  8 29  1  0  0  0
  9 30  1  0  0  0
  9 31  1  0  0  0
 11 32  1  0  0  0
 15 33  1  0  0  0
 17 34  1  0  0  0
 20 35  1  0  0  0
 21 36  1  0  0  0
 22 37  1  0  0  0
 23 38  1  0  0  0
 24 39  1  0  0  0
M  END
$$$$
