### 
### Created by X-TOOL on Sun Jun  3 11:23:45 2007
### 

@<TRIPOS>MOLECULE
2flb_ligand
   39    42     1     0     0
SMALL
GAST_HUCK


@<TRIPOS>ATOM
      1 C1         12.7140    8.9120   47.5160 C.ar      1 SUB1        0.013
      2 C2         12.4670    7.5450   47.2330 C.ar      1 SUB1       -0.071
      3 C3         11.6190    6.8280   48.0770 C.ar      1 SUB1       -0.062
      4 C4         11.0660    7.5150   49.1530 C.ar      1 SUB1        0.030
      5 C5         11.2950    8.8410   49.4250 C.ar      1 SUB1        0.081
      6 C6         12.1360    9.5930   48.5980 C.ar      1 SUB1       -0.035
      7 C7         13.6070    9.5990   46.6820 C.cat     1 SUB1        0.230
      8 N1         13.7670   10.9040   46.8370 N.pl3     1 SUB1       -0.273
      9 N2         14.3560    8.9660   45.7470 N.pl3     1 SUB1       -0.273
     10 N3         10.2780    6.9860   50.0590 N.2       1 SUB1       -0.309
     11 N4         10.6500    9.2140   50.5380 N.pl3     1 SUB1       -0.250
     12 C8         10.0590    8.0470   50.8570 C.2       1 SUB1        0.147
     13 C5'         9.2980    7.8660   52.0400 C.2       1 SUB1        0.133
     14 C4'         8.8100    6.6260   52.4320 C.2       1 SUB1        0.131
     15 O4'         8.9500    5.4750   51.6810 O.3       1 SUB1       -0.344
     16 C3'         8.1900    6.8730   53.6670 C.2       1 SUB1        0.119
     17 N2'         8.2440    8.1670   54.0100 N.pl3     1 SUB1       -0.216
     18 N1'         8.9580    8.8050   52.9240 N.2       1 SUB1       -0.195
     19 C1''        7.4830    5.8660   54.3640 C.ar      1 SUB1        0.001
     20 C2''        6.7720    4.8930   53.6540 C.ar      1 SUB1       -0.058
     21 C3''        6.0670    3.9200   54.3560 C.ar      1 SUB1       -0.066
     22 C4''        6.0730    3.9110   55.7420 C.ar      1 SUB1       -0.066
     23 C5''        6.7850    4.8850   56.4470 C.ar      1 SUB1       -0.066
     24 C6''        7.5050    5.8810   55.7580 C.ar      1 SUB1       -0.058
     25 H          12.9309    7.0634   46.3722 H         1 SUB1        0.052
     26 H          11.3991    5.7750   47.9011 H         1 SUB1        0.055
     27 H          12.3314   10.6491   48.7838 H         1 SUB1        0.054
     28 H          14.4409   11.4073   46.2600 H         1 SUB1        0.318
     29 H          13.2164   11.4062   47.5334 H         1 SUB1        0.318
     30 H          15.0224    9.4945   45.1840 H         1 SUB1        0.318
     31 H          14.2534    7.9610   45.6062 H         1 SUB1        0.318
     32 H          10.6163   10.1189   51.0074 H         1 SUB1        0.230
     33 H           9.8831    5.2905   51.5511 H         1 SUB1        0.242
     34 H           7.8660    8.6054   54.8498 H         1 SUB1        0.253
     35 H           6.7701    4.8968   52.5640 H         1 SUB1        0.059
     36 H           5.5063    3.1598   53.8122 H         1 SUB1        0.061
     37 H           5.5211    3.1425   56.2832 H         1 SUB1        0.058
     38 H           6.7834    4.8742   57.5369 H         1 SUB1        0.061
     39 H           8.0644    6.6431   56.3005 H         1 SUB1        0.059
@<TRIPOS>BOND
     1    1    2 ar 
     2    1    6 ar 
     3    1    7 1  
     4    2    3 ar 
     5    3    4 ar 
     6    4    5 ar 
     7    4   10 1  
     8    5    6 ar 
     9    5   11 1  
    10    7    8 1  
    11    7    9 1  
    12   10   12 2  
    13   11   12 1  
    14   12   13 1  
    15   13   14 1  
    16   13   18 2  
    17   14   15 1  
    18   14   16 2  
    19   16   17 1  
    20   16   19 1  
    21   17   18 1  
    22   19   20 ar 
    23   19   24 ar 
    24   20   21 ar 
    25   21   22 ar 
    26   22   23 ar 
    27   23   24 ar 
    28    2   25 1  
    29    3   26 1  
    30    6   27 1  
    31    8   28 1  
    32    8   29 1  
    33    9   30 1  
    34    9   31 1  
    35   11   32 1  
    36   15   33 1  
    37   17   34 1  
    38   20   35 1  
    39   21   36 1  
    40   22   37 1  
    41   23   38 1  
    42   24   39 1  
@<TRIPOS>SUBSTRUCTURE
     1 SUB1        1 GROUP

