### 
### Created by X-TOOL on Mon Oct 24 21:59:49 2005
### 

@<TRIPOS>MOLECULE
1b8o_ligand
   34    36     1     0     0
SMALL
GAST_HUCK


@<TRIPOS>ATOM
      1 H71        22.5772   90.7039   77.0401 H         1 SUB1        0.210
      2 H81        21.5473   88.6847   77.4068 H         1 SUB1        0.061
      3 H82        22.3802   88.7703   75.8176 H         1 SUB1        0.061
      4 H91        19.3912   88.7466   76.4193 H         1 SUB1        0.090
      5 H101       20.5502   90.5473   74.8889 H         1 SUB1        0.203
      6 H102       19.0876   89.8997   74.5001 H         1 SUB1        0.203
      7 O5'        21.7480   90.5640   76.5980 O.3       1 SUB1       -0.389
      8 C5'        21.5380   89.1540   76.4120 C.3       1 SUB1        0.089
      9 C4'        20.2210   88.7130   75.6980 C.3       1 SUB1        0.031
     10 N4'        20.0680   89.7020   74.6260 N.4       1 SUB1        0.243
     11 C3'        20.1890   87.3530   74.9510 C.3       1 SUB1        0.132
     12 O3'        18.8590   86.7640   74.8620 O.3       1 SUB1       -0.383
     13 C2'        20.7010   87.6800   73.4910 C.3       1 SUB1        0.133
     14 O2'        19.8950   87.0710   72.4580 O.3       1 SUB1       -0.382
     15 C1'        20.6180   89.2150   73.3680 C.3       1 SUB1        0.024
     16 C9         22.0500   89.9520   73.1120 C.2       1 SUB1        0.006
     17 C8         22.2840   91.2710   73.2430 C.2       1 SUB1        0.022
     18 N7         23.6620   91.5480   72.9460 N.pl3     1 SUB1       -0.289
     19 C5         24.2050   90.2850   72.6460 C.2       1 SUB1        0.135
     20 C6         25.6000   90.0060   72.2640 C.2       1 SUB1        0.241
     21 O6         26.5520   90.7960   72.2070 O.2       1 SUB1       -0.401
     22 N1         25.7420   88.6250   72.0150 N.am      1 SUB1       -0.207
     23 C2         24.7180   87.6480   72.1050 C.2       1 SUB1        0.115
     24 N3         23.4910   87.9970   72.4590 N.2       1 SUB1       -0.320
     25 C4         23.2780   89.3130   72.7160 C.2       1 SUB1        0.018
     26 H111       20.8625   86.6402   75.4492 H         1 SUB1        0.068
     27 H121       18.9012   85.9656   74.3490 H         1 SUB1        0.210
     28 H131       21.7412   87.3405   73.3778 H         1 SUB1        0.069
     29 H141       18.9921   87.3492   72.5571 H         1 SUB1        0.210
     30 H151       19.9426   89.4684   72.5375 H         1 SUB1        0.096
     31 H171       21.5421   92.0146   73.5303 H         1 SUB1        0.078
     32 H181       24.1413   92.4597   72.9514 H         1 SUB1        0.227
     33 H221       26.6513   88.3043   71.7498 H         1 SUB1        0.252
     34 H231       24.9420   86.6059   71.8819 H         1 SUB1        0.143
@<TRIPOS>BOND
     1    7    1 1  
     2    8    2 1  
     3    8    3 1  
     4    9    4 1  
     5    8    7 1  
     6    8    9 1  
     7    9   11 1  
     8    9   10 1  
     9   10   15 1  
    10   15   16 1  
    11   15   13 1  
    12   13   14 1  
    13   13   11 1  
    14   11   12 1  
    15   16   25 1  
    16   16   17 2  
    17   17   18 1  
    18   18   19 1  
    19   19   25 2  
    20   19   20 1  
    21   20   22 am 
    22   20   21 2  
    23   22   23 am 
    24   23   24 2  
    25   24   25 1  
    26   10    5 1  
    27   10    6 1  
    28   11   26 1  
    29   12   27 1  
    30   13   28 1  
    31   14   29 1  
    32   15   30 1  
    33   17   31 1  
    34   18   32 1  
    35   22   33 1  
    36   23   34 1  
@<TRIPOS>SUBSTRUCTURE
     1 SUB1        1 GROUP

