1b8o_ligand
  -I-interpret- 

 34 36  0  0  0  0  0  0  0  0999 V2000
   22.5772   90.7039   77.0401 H   0  0  0  0  0
   21.5473   88.6847   77.4068 H   0  0  0  0  0
   22.3802   88.7703   75.8176 H   0  0  0  0  0
   19.3912   88.7466   76.4193 H   0  0  0  0  0
   20.5502   90.5473   74.8889 H   0  0  0  0  0
   19.0876   89.8997   74.5001 H   0  0  0  0  0
   21.7480   90.5640   76.5980 O   0  0  0  0  0
   21.5380   89.1540   76.4120 C   0  0  0  0  0
   20.2210   88.7130   75.6980 C   0  0  0  0  0
   20.0680   89.7020   74.6260 N   0  3  0  0  0
   20.1890   87.3530   74.9510 C   0  0  0  0  0
   18.8590   86.7640   74.8620 O   0  0  0  0  0
   20.7010   87.6800   73.4910 C   0  0  0  0  0
   19.8950   87.0710   72.4580 O   0  0  0  0  0
   20.6180   89.2150   73.3680 C   0  0  0  0  0
   22.0500   89.9520   73.1120 C   0  0  0  0  0
   22.2840   91.2710   73.2430 C   0  0  0  0  0
   23.6620   91.5480   72.9460 N   0  0  0  0  0
   24.2050   90.2850   72.6460 C   0  0  0  0  0
   25.6000   90.0060   72.2640 C   0  0  0  0  0
   26.5520   90.7960   72.2070 O   0  0  0  0  0
   25.7420   88.6250   72.0150 N   0  0  0  0  0
   24.7180   87.6480   72.1050 C   0  0  0  0  0
   23.4910   87.9970   72.4590 N   0  0  0  0  0
   23.2780   89.3130   72.7160 C   0  0  0  0  0
   20.8625   86.6402   75.4492 H   0  0  0  0  0
   18.9012   85.9656   74.3490 H   0  0  0  0  0
   21.7412   87.3405   73.3778 H   0  0  0  0  0
   18.9921   87.3492   72.5571 H   0  0  0  0  0
   19.9426   89.4684   72.5375 H   0  0  0  0  0
   21.5421   92.0146   73.5303 H   0  0  0  0  0
   24.1413   92.4597   72.9514 H   0  0  0  0  0
   26.6513   88.3043   71.7498 H   0  0  0  0  0
   24.9420   86.6059   71.8819 H   0  0  0  0  0
  7  1  1  0  0  0
  8  2  1  0  0  0
  8  3  1  0  0  0
  9  4  1  0  0  0
  8  7  1  0  0  0
  8  9  1  0  0  0
  9 11  1  0  0  0
  9 10  1  0  0  0
 10 15  1  0  0  0
 15 16  1  0  0  0
 15 13  1  0  0  0
 13 14  1  0  0  0
 13 11  1  0  0  0
 11 12  1  0  0  0
 16 25  1  0  0  0
 16 17  2  0  0  0
 17 18  1  0  0  0
 18 19  1  0  0  0
 19 25  2  0  0  0
 19 20  1  0  0  0
 20 22  1  0  0  0
 20 21  2  0  0  0
 22 23  1  0  0  0
 23 24  2  0  0  0
 24 25  1  0  0  0
 10  5  1  0  0  0
 10  6  1  0  0  0
 11 26  1  0  0  0
 12 27  1  0  0  0
 13 28  1  0  0  0
 14 29  1  0  0  0
 15 30  1  0  0  0
 17 31  1  0  0  0
 18 32  1  0  0  0
 22 33  1  0  0  0
 23 34  1  0  0  0
M  END
$$$$
