### 
### Created by X-TOOL on Mon Oct 24 22:28:18 2005
### 

@<TRIPOS>MOLECULE
1duv_ligand
   31    30     1     0     0
SMALL
GAST_HUCK


@<TRIPOS>ATOM
      1 S          27.6570   16.4910   23.5070 S.o2      1 SUB1       -0.086
      2 O          27.3000   17.2980   22.2810 O.co2     1 SUB1       -0.463
      3 O1         28.7920   15.7870   23.4180 O.co2     1 SUB1       -0.463
      4 O2         27.7220   17.4660   24.7420 O.co2     1 SUB1       -0.463
      5 P          26.3190   14.3010   24.8570 P.3       1 SUB1        0.256
      6 N          24.6690   13.8230   24.8630 N.am      1 SUB1       -0.264
      7 O3         26.6320   14.7490   26.2730 O.2       1 SUB1       -0.594
      8 N1         27.4460   13.2060   24.4900 N.am      1 SUB1       -0.251
      9 C          31.1920    9.3800   24.6430 C.2       1 SUB1        0.076
     10 O4         31.7350    9.7760   23.5750 O.co2     1 SUB1       -0.561
     11 O5         31.8020    9.3970   25.7440 O.co2     1 SUB1       -0.561
     12 C1         29.7540    8.8020   24.5930 C.3       1 SUB1        0.015
     13 C2         28.6760    9.7060   25.2530 C.3       1 SUB1        0.003
     14 C3         28.5300   11.1030   24.6040 C.3       1 SUB1       -0.024
     15 C4         27.4790   11.9640   25.2980 C.3       1 SUB1        0.040
     16 N2         26.3940   15.5350   23.7070 N.am      1 SUB1       -0.152
     17 N3         29.7720    7.4710   25.2470 N.4       1 SUB1        0.238
     18 H61        23.9510   14.4931   25.0898 H         1 SUB1        0.193
     19 H81        28.0968   13.3594   23.7464 H         1 SUB1        0.197
     20 H121       29.4772    8.6739   23.5361 H         1 SUB1        0.107
     21 H131       27.7062    9.1914   25.1842 H         1 SUB1        0.036
     22 H132       28.9435    9.8442   26.3110 H         1 SUB1        0.036
     23 H141       29.4998   11.6194   24.6570 H         1 SUB1        0.029
     24 H142       28.2404   10.9738   23.5507 H         1 SUB1        0.029
     25 H151       26.4982   11.4661   25.2907 H         1 SUB1        0.053
     26 H152       27.7730   12.1798   26.3358 H         1 SUB1        0.053
     27 H161       25.5998   15.6755   23.1158 H         1 SUB1        0.223
     28 H171       30.4738    6.8925   24.8123 H         1 SUB1        0.202
     29 H172       28.8685    7.0353   25.1472 H         1 SUB1        0.202
     30 H173       29.9860    7.5805   26.2259 H         1 SUB1        0.202
     31 H62        24.4208   12.8799   24.6415 H         1 SUB1        0.193
@<TRIPOS>BOND
     1    1   16 1  
     2    1    4 2  
     3    1    3 2  
     4    1    2 2  
     5   16    5 1  
     6    5    8 1  
     7    5    7 2  
     8    5    6 1  
     9    8   15 1  
    10   15   14 1  
    11   14   13 1  
    12   13   12 1  
    13   12   17 1  
    14   12    9 1  
    15    9   11 2  
    16    9   10 2  
    17    6   18 1  
    18    8   19 1  
    19   12   20 1  
    20   13   21 1  
    21   13   22 1  
    22   14   23 1  
    23   14   24 1  
    24   15   25 1  
    25   15   26 1  
    26   16   27 1  
    27   17   28 1  
    28   17   29 1  
    29   17   30 1  
    30    6   31 1  
@<TRIPOS>SUBSTRUCTURE
     1 SUB1        1 GROUP

