1mrw_ligand
  -I-interpret- 

 74 76  0  0  0  0  0  0  0  0999 V2000
   11.1140   17.7090   19.0530 C   0  0  0  0  0
   11.1960   18.3940   17.8240 C   0  0  0  0  0
   12.2820   19.2640   17.5690 C   0  0  0  0  0
   13.3080   19.4670   18.5420 C   0  0  0  0  0
   13.2250   18.7660   19.8070 C   0  0  0  0  0
   12.1150   17.8910   20.0360 C   0  0  0  0  0
   14.2760   18.9230   20.9010 C   0  0  0  0  0
   14.4410   20.3890   18.2340 C   0  0  0  0  0
   14.1020   21.6370   17.8070 N   0  0  0  0  0
   15.1130   22.5980   17.3450 C   0  0  0  0  0
   15.1250   22.8580   15.8140 C   0  0  0  0  0
   15.0360   23.8360   18.2440 C   0  0  0  0  0
   16.2980   24.7030   18.4790 C   0  0  0  0  0
   17.4370   24.0970   19.0340 N   0  0  0  0  0
   18.7480   24.7560   18.8690 C   0  0  0  0  0
   19.7330   24.1200   19.9070 C   0  0  0  0  0
   19.2360   22.4060   20.0420 S   0  0  0  0  0
   17.5020   22.7580   19.6830 C   0  0  0  0  0
   14.1780   22.0340   14.9940 C   0  0  0  0  0
   14.7280   21.0530   14.1260 C   0  0  0  0  0
   13.8870   20.2300   13.3280 C   0  0  0  0  0
   12.4840   20.3920   13.4020 C   0  0  0  0  0
   11.9240   21.3750   14.2680 C   0  0  0  0  0
   12.7660   22.1920   15.0600 C   0  0  0  0  0
   13.8140   24.2040   18.7960 O   0  0  0  0  0
   16.3070   25.8310   18.0080 O   0  0  0  0  0
   19.6190   24.7670   21.3030 C   0  0  0  0  0
   21.2030   24.1520   19.4270 C   0  0  0  0  0
   19.1420   24.5590   17.3600 C   0  0  0  0  0
   19.7290   25.6700   16.7930 N   0  0  0  0  0
   20.2020   25.8120   15.3920 C   0  0  0  0  0
   18.9120   23.4900   16.7830 O   0  0  0  0  0
   12.0080   17.2060   21.2310 O   0  0  0  0  0
   15.6250   20.0630   18.3350 O   0  0  0  0  0
   20.7570   27.2410   15.2750 C   0  0  0  0  0
   19.0310   25.6220   14.4000 C   0  0  0  0  0
   21.3410   24.8010   15.0940 C   0  0  0  0  0
   10.2821   17.0412   19.2455 H   0  0  0  0  0
   10.4263   18.2541   17.0736 H   0  0  0  0  0
   12.3365   19.7850   16.6200 H   0  0  0  0  0
   15.0485   19.6265   20.5571 H   0  0  0  0  0
   13.8101   19.3212   21.8144 H   0  0  0  0  0
   14.7454   17.9510   21.1125 H   0  0  0  0  0
   13.1390   21.9066   17.8079 H   0  0  0  0  0
   16.0925   22.1469   17.5617 H   0  0  0  0  0
   14.8673   23.9138   15.6441 H   0  0  0  0  0
   16.1394   22.6547   15.4403 H   0  0  0  0  0
   15.2609   23.2320   19.1354 H   0  0  0  0  0
   18.6707   25.8357   19.0646 H   0  0  0  0  0
   16.9293   22.7617   20.6221 H   0  0  0  0  0
   17.1066   21.9868   19.0056 H   0  0  0  0  0
   15.8036   20.9303   14.0714 H   0  0  0  0  0
   14.3174   19.4849   12.6687 H   0  0  0  0  0
   11.8342   19.7678   12.7994 H   0  0  0  0  0
   10.8483   21.4978   14.3206 H   0  0  0  0  0
   12.3345   22.9384   15.7171 H   0  0  0  0  0
   13.1533   23.5657   18.5539 H   0  0  0  0  0
   20.3326   24.2791   21.9832 H   0  0  0  0  0
   19.8592   25.8386   21.2405 H   0  0  0  0  0
   18.6005   24.6332   21.6964 H   0  0  0  0  0
   21.8411   23.6930   20.1965 H   0  0  0  0  0
   21.3046   23.5827   18.4913 H   0  0  0  0  0
   21.5237   25.1924   19.2697 H   0  0  0  0  0
   19.8492   26.4647   17.3880 H   0  0  0  0  0
   11.2210   16.6741   21.2205 H   0  0  0  0  0
   21.1232   27.4002   14.2500 H   0  0  0  0  0
   19.9622   27.9708   15.4887 H   0  0  0  0  0
   21.5912   27.3782   15.9787 H   0  0  0  0  0
   19.4100   25.7323   13.3732 H   0  0  0  0  0
   18.6000   24.6167   14.5166 H   0  0  0  0  0
   18.2589   26.3844   14.5806 H   0  0  0  0  0
   21.6702   24.9292   14.0523 H   0  0  0  0  0
   22.1930   24.9875   15.7643 H   0  0  0  0  0
   20.9749   23.7727   15.2299 H   0  0  0  0  0
  1  2  4  0  0  0
  1  6  4  0  0  0
  2  3  4  0  0  0
  3  4  4  0  0  0
  4  5  4  0  0  0
  4  8  1  0  0  0
  5  6  4  0  0  0
  5  7  1  0  0  0
  6 33  1  0  0  0
  8  9  1  0  0  0
  8 34  2  0  0  0
  9 10  1  0  0  0
 10 11  1  0  0  0
 10 12  1  0  0  0
 11 19  1  0  0  0
 12 13  1  0  0  0
 12 25  1  0  0  0
 13 14  1  0  0  0
 13 26  2  0  0  0
 14 15  1  0  0  0
 14 18  1  0  0  0
 15 16  1  0  0  0
 15 29  1  0  0  0
 16 17  1  0  0  0
 16 27  1  0  0  0
 16 28  1  0  0  0
 17 18  1  0  0  0
 19 20  4  0  0  0
 19 24  4  0  0  0
 20 21  4  0  0  0
 21 22  4  0  0  0
 22 23  4  0  0  0
 23 24  4  0  0  0
 29 30  1  0  0  0
 29 32  2  0  0  0
 30 31  1  0  0  0
 31 35  1  0  0  0
 31 36  1  0  0  0
 31 37  1  0  0  0
  1 38  1  0  0  0
  2 39  1  0  0  0
  3 40  1  0  0  0
  7 41  1  0  0  0
  7 42  1  0  0  0
  7 43  1  0  0  0
  9 44  1  0  0  0
 10 45  1  0  0  0
 11 46  1  0  0  0
 11 47  1  0  0  0
 12 48  1  0  0  0
 15 49  1  0  0  0
 18 50  1  0  0  0
 18 51  1  0  0  0
 20 52  1  0  0  0
 21 53  1  0  0  0
 22 54  1  0  0  0
 23 55  1  0  0  0
 24 56  1  0  0  0
 25 57  1  0  0  0
 27 58  1  0  0  0
 27 59  1  0  0  0
 27 60  1  0  0  0
 28 61  1  0  0  0
 28 62  1  0  0  0
 28 63  1  0  0  0
 30 64  1  0  0  0
 33 65  1  0  0  0
 35 66  1  0  0  0
 35 67  1  0  0  0
 35 68  1  0  0  0
 36 69  1  0  0  0
 36 70  1  0  0  0
 36 71  1  0  0  0
 37 72  1  0  0  0
 37 73  1  0  0  0
 37 74  1  0  0  0
M  END
$$$$
