### 
### Created by X-TOOL on Tue Oct 25 00:06:35 2005
### 

@<TRIPOS>MOLECULE
1mrw_ligand
   74    76     1     0     0
SMALL
GAST_HUCK


@<TRIPOS>ATOM
      1 C1         11.1140   17.7090   19.0530 C.ar      1 SUB1       -0.036
      2 C2         11.1960   18.3940   17.8240 C.ar      1 SUB1       -0.072
      3 C3         12.2820   19.2640   17.5690 C.ar      1 SUB1       -0.060
      4 C4         13.3080   19.4670   18.5420 C.ar      1 SUB1        0.043
      5 C5         13.2250   18.7660   19.8070 C.ar      1 SUB1        0.004
      6 C6         12.1150   17.8910   20.0360 C.ar      1 SUB1        0.095
      7 C7         14.2760   18.9230   20.9010 C.3       1 SUB1       -0.029
      8 C8         14.4410   20.3890   18.2340 C.2       1 SUB1        0.198
      9 N9         14.1020   21.6370   17.8070 N.am      1 SUB1       -0.278
     10 C10        15.1130   22.5980   17.3450 C.3       1 SUB1        0.094
     11 C11        15.1250   22.8580   15.8140 C.3       1 SUB1        0.009
     12 C12        15.0360   23.8360   18.2440 C.3       1 SUB1        0.168
     13 C13        16.2980   24.7030   18.4790 C.2       1 SUB1        0.213
     14 N14        17.4370   24.0970   19.0340 N.am      1 SUB1       -0.238
     15 C15        18.7480   24.7560   18.8690 C.3       1 SUB1        0.148
     16 C16        19.7330   24.1200   19.9070 C.3       1 SUB1        0.053
     17 S17        19.2360   22.4060   20.0420 S.3       1 SUB1       -0.125
     18 C18        17.5020   22.7580   19.6830 C.3       1 SUB1        0.083
     19 C19        14.1780   22.0340   14.9940 C.ar      1 SUB1       -0.041
     20 C20        14.7280   21.0530   14.1260 C.ar      1 SUB1       -0.060
     21 C21        13.8870   20.2300   13.3280 C.ar      1 SUB1       -0.069
     22 C22        12.4840   20.3920   13.4020 C.ar      1 SUB1       -0.069
     23 C23        11.9240   21.3750   14.2680 C.ar      1 SUB1       -0.069
     24 C24        12.7660   22.1920   15.0600 C.ar      1 SUB1       -0.060
     25 O25        13.8140   24.2040   18.7960 O.3       1 SUB1       -0.369
     26 O26        16.3070   25.8310   18.0080 O.2       1 SUB1       -0.394
     27 C27        19.6190   24.7670   21.3030 C.3       1 SUB1       -0.046
     28 C28        21.2030   24.1520   19.4270 C.3       1 SUB1       -0.046
     29 C29        19.1420   24.5590   17.3600 C.2       1 SUB1        0.204
     30 N30        19.7290   25.6700   16.7930 N.am      1 SUB1       -0.280
     31 C31        20.2020   25.8120   15.3920 C.3       1 SUB1        0.045
     32 O32        18.9120   23.4900   16.7830 O.2       1 SUB1       -0.394
     33 O33        12.0080   17.2060   21.2310 O.3       1 SUB1       -0.336
     34 O34        15.6250   20.0630   18.3350 O.2       1 SUB1       -0.389
     35 C35        20.7570   27.2410   15.2750 C.3       1 SUB1       -0.040
     36 C67        19.0310   25.6220   14.4000 C.3       1 SUB1       -0.040
     37 C71        21.3410   24.8010   15.0940 C.3       1 SUB1       -0.040
     38 H11        10.2821   17.0412   19.2455 H         1 SUB1        0.056
     39 H21        10.4263   18.2541   17.0736 H         1 SUB1        0.054
     40 H31        12.3365   19.7850   16.6200 H         1 SUB1        0.056
     41 H71        15.0485   19.6265   20.5571 H         1 SUB1        0.038
     42 H72        13.8101   19.3212   21.8144 H         1 SUB1        0.038
     43 H73        14.7454   17.9510   21.1125 H         1 SUB1        0.038
     44 H91        13.1390   21.9066   17.8079 H         1 SUB1        0.185
     45 H101       16.0925   22.1469   17.5617 H         1 SUB1        0.063
     46 H111       14.8673   23.9138   15.6441 H         1 SUB1        0.045
     47 H112       16.1394   22.6547   15.4403 H         1 SUB1        0.045
     48 H121       15.2609   23.2320   19.1354 H         1 SUB1        0.086
     49 H151       18.6707   25.8357   19.0646 H         1 SUB1        0.082
     50 H181       16.9293   22.7617   20.6221 H         1 SUB1        0.064
     51 H182       17.1066   21.9868   19.0056 H         1 SUB1        0.064
     52 H201       15.8036   20.9303   14.0714 H         1 SUB1        0.056
     53 H211       14.3174   19.4849   12.6687 H         1 SUB1        0.060
     54 H221       11.8342   19.7678   12.7994 H         1 SUB1        0.056
     55 H231       10.8483   21.4978   14.3206 H         1 SUB1        0.060
     56 H241       12.3345   22.9384   15.7171 H         1 SUB1        0.056
     57 H251       13.1533   23.5657   18.5539 H         1 SUB1        0.213
     58 H271       20.3326   24.2791   21.9832 H         1 SUB1        0.024
     59 H272       19.8592   25.8386   21.2405 H         1 SUB1        0.024
     60 H273       18.6005   24.6332   21.6964 H         1 SUB1        0.024
     61 H281       21.8411   23.6930   20.1965 H         1 SUB1        0.024
     62 H282       21.3046   23.5827   18.4913 H         1 SUB1        0.024
     63 H283       21.5237   25.1924   19.2697 H         1 SUB1        0.024
     64 H301       19.8492   26.4647   17.3880 H         1 SUB1        0.186
     65 H331       11.2210   16.6741   21.2205 H         1 SUB1        0.246
     66 H351       21.1232   27.4002   14.2500 H         1 SUB1        0.025
     67 H352       19.9622   27.9708   15.4887 H         1 SUB1        0.025
     68 H353       21.5912   27.3782   15.9787 H         1 SUB1        0.025
     69 H361       19.4100   25.7323   13.3732 H         1 SUB1        0.025
     70 H362       18.6000   24.6167   14.5166 H         1 SUB1        0.025
     71 H363       18.2589   26.3844   14.5806 H         1 SUB1        0.025
     72 H371       21.6702   24.9292   14.0523 H         1 SUB1        0.025
     73 H372       22.1930   24.9875   15.7643 H         1 SUB1        0.025
     74 H373       20.9749   23.7727   15.2299 H         1 SUB1        0.025
@<TRIPOS>BOND
     1    1    2 ar 
     2    1    6 ar 
     3    2    3 ar 
     4    3    4 ar 
     5    4    5 ar 
     6    4    8 1  
     7    5    6 ar 
     8    5    7 1  
     9    6   33 1  
    10    8    9 am 
    11    8   34 2  
    12    9   10 1  
    13   10   11 1  
    14   10   12 1  
    15   11   19 1  
    16   12   13 1  
    17   12   25 1  
    18   13   14 am 
    19   13   26 2  
    20   14   15 1  
    21   14   18 1  
    22   15   16 1  
    23   15   29 1  
    24   16   17 1  
    25   16   27 1  
    26   16   28 1  
    27   17   18 1  
    28   19   20 ar 
    29   19   24 ar 
    30   20   21 ar 
    31   21   22 ar 
    32   22   23 ar 
    33   23   24 ar 
    34   29   30 am 
    35   29   32 2  
    36   30   31 1  
    37   31   35 1  
    38   31   36 1  
    39   31   37 1  
    40    1   38 1  
    41    2   39 1  
    42    3   40 1  
    43    7   41 1  
    44    7   42 1  
    45    7   43 1  
    46    9   44 1  
    47   10   45 1  
    48   11   46 1  
    49   11   47 1  
    50   12   48 1  
    51   15   49 1  
    52   18   50 1  
    53   18   51 1  
    54   20   52 1  
    55   21   53 1  
    56   22   54 1  
    57   23   55 1  
    58   24   56 1  
    59   25   57 1  
    60   27   58 1  
    61   27   59 1  
    62   27   60 1  
    63   28   61 1  
    64   28   62 1  
    65   28   63 1  
    66   30   64 1  
    67   33   65 1  
    68   35   66 1  
    69   35   67 1  
    70   35   68 1  
    71   36   69 1  
    72   36   70 1  
    73   36   71 1  
    74   37   72 1  
    75   37   73 1  
    76   37   74 1  
@<TRIPOS>SUBSTRUCTURE
     1 SUB1        1 GROUP

