### 
### Created by X-TOOL on Sun Jun  3 12:44:14 2007
### 

@<TRIPOS>MOLECULE
2hs2_ligand
   75    78     1     0     0
SMALL
GAST_HUCK


@<TRIPOS>ATOM
      1 N1         -1.1340    8.3150   29.9190 N.pl3     1 SUB1       -0.337
      2 C2         -0.6920    8.5640   31.1990 C.ar      1 SUB1        0.035
      3 C3          0.5620    8.1180   31.6170 C.ar      1 SUB1       -0.043
      4 C4          1.0190    8.3660   32.9120 C.ar      1 SUB1       -0.047
      5 C5          0.2090    9.0700   33.8020 C.ar      1 SUB1        0.095
      6 C6         -1.0480    9.5190   33.3890 C.ar      1 SUB1       -0.047
      7 C7         -1.5170    9.2760   32.0910 C.ar      1 SUB1       -0.043
      8 S8          0.8330    9.2460   35.4870 S.o2      1 SUB1        0.065
      9 O9          2.2730    9.0540   35.3980 O.2       1 SUB1       -0.152
     10 O10         0.3180   10.5000   36.0330 O.2       1 SUB1       -0.152
     11 N11         0.1790    7.9900   36.4100 N.am      1 SUB1       -0.233
     12 C12        -1.2770    7.9740   36.6370 C.3       1 SUB1        0.032
     13 C13        -1.6860    7.6240   38.0700 C.3       1 SUB1       -0.030
     14 C14        -1.3470    8.7190   39.0730 C.3       1 SUB1       -0.061
     15 C15        -3.1710    7.2880   38.0850 C.3       1 SUB1       -0.061
     16 C16         0.8050    6.6540   36.3730 C.3       1 SUB1        0.058
     17 C17         1.5520    6.3500   37.6780 C.3       1 SUB1        0.097
     18 O18         1.9230    4.9680   37.6790 O.3       1 SUB1       -0.388
     19 C19         2.7400    7.2720   37.9880 C.3       1 SUB1        0.081
     20 N20         3.0860    7.0990   39.3960 N.am      1 SUB1       -0.255
     21 C21         2.9650    7.9710   40.4010 C.2       1 SUB1        0.320
     22 O22         2.5800    9.1220   40.2330 O.2       1 SUB1       -0.377
     23 O23         3.3200    7.4150   41.6010 O.3       1 SUB1       -0.258
     24 C24         3.3320    8.3160   42.7500 C.3       1 SUB1        0.119
     25 C25         2.9340    7.4970   43.9950 C.3       1 SUB1        0.082
     26 O26         4.0870    6.6850   44.2790 O.3       1 SUB1       -0.348
     27 C27         5.2350    7.4880   43.9720 C.3       1 SUB1        0.165
     28 O28         6.1130    6.7090   43.2210 O.3       1 SUB1       -0.351
     29 C29         6.2500    7.2350   41.9090 C.3       1 SUB1        0.051
     30 C30         5.8000    8.6640   41.9280 C.3       1 SUB1       -0.019
     31 C31         4.7770    8.6940   43.1060 C.3       1 SUB1        0.045
     32 C32         3.9670    6.9630   37.0980 C.3       1 SUB1        0.006
     33 C33         6.2560    7.2800   38.1610 C.ar      1 SUB1       -0.060
     34 C34         7.3030    8.1060   38.5460 C.ar      1 SUB1       -0.069
     35 C35         7.2450    9.4680   38.3150 C.ar      1 SUB1       -0.069
     36 C36         6.1250   10.0360   37.6900 C.ar      1 SUB1       -0.069
     37 C37         5.0670    9.2190   37.2970 C.ar      1 SUB1       -0.060
     38 C38         5.1290    7.8460   37.5300 C.ar      1 SUB1       -0.041
     39 H          -0.5429    7.8001   29.2664 H         1 SUB1        0.172
     40 H          -2.0526    8.6455   29.6233 H         1 SUB1        0.172
     41 H           1.1948    7.5671   30.9211 H         1 SUB1        0.052
     42 H           2.0013    8.0122   33.2252 H         1 SUB1        0.060
     43 H          -1.6760   10.0689   34.0900 H         1 SUB1        0.060
     44 H          -2.4992    9.6305   31.7785 H         1 SUB1        0.052
     45 H          -1.6950    7.2054   35.9869 H         1 SUB1        0.048
     46 H          -1.6447    8.9800   36.4347 H         1 SUB1        0.048
     47 H          -1.1071    6.7574   38.3893 H         1 SUB1        0.031
     48 H          -0.2710    8.8928   39.0694 H         1 SUB1        0.023
     49 H          -1.8655    9.6369   38.7960 H         1 SUB1        0.023
     50 H          -1.6628    8.4082   40.0689 H         1 SUB1        0.023
     51 H          -3.7407    8.1495   37.7365 H         1 SUB1        0.023
     52 H          -3.3566    6.4382   37.4281 H         1 SUB1        0.023
     53 H          -3.4751    7.0367   39.1011 H         1 SUB1        0.023
     54 H           1.5202    6.6293   35.5508 H         1 SUB1        0.050
     55 H           0.0214    5.9080   36.2407 H         1 SUB1        0.050
     56 H           0.8629    6.5609   38.4958 H         1 SUB1        0.063
     57 H           2.3920    4.7643   38.4915 H         1 SUB1        0.210
     58 H           2.4525    8.3023   37.7782 H         1 SUB1        0.060
     59 H           3.4726    6.1889   39.6463 H         1 SUB1        0.187
     60 H           2.6947    9.1676   42.5119 H         1 SUB1        0.068
     61 H           2.0439    6.8932   43.8182 H         1 SUB1        0.059
     62 H           2.6692    8.1373   44.8364 H         1 SUB1        0.059
     63 H           5.7157    7.8423   44.8839 H         1 SUB1        0.091
     64 H           5.6428    6.6603   41.2096 H         1 SUB1        0.056
     65 H           7.2897    7.1739   41.5875 H         1 SUB1        0.056
     66 H           5.3635    8.9821   40.9812 H         1 SUB1        0.029
     67 H           6.6236    9.3645   42.0658 H         1 SUB1        0.029
     68 H           4.7681    9.7017   43.5214 H         1 SUB1        0.038
     69 H           3.7230    7.1618   36.0544 H         1 SUB1        0.045
     70 H           4.2434    5.9141   37.2051 H         1 SUB1        0.045
     71 H           6.3044    6.2066   38.3442 H         1 SUB1        0.056
     72 H           8.1781    7.6774   39.0345 H         1 SUB1        0.060
     73 H           8.0752   10.1047   38.6206 H         1 SUB1        0.056
     74 H           6.0826   11.1107   37.5128 H         1 SUB1        0.060
     75 H           4.1938    9.6520   36.8090 H         1 SUB1        0.056
@<TRIPOS>BOND
     1    2    1 1  
     2    3    2 ar 
     3    7    2 ar 
     4    4    3 ar 
     5    5    4 ar 
     6    5    6 ar 
     7    8    5 1  
     8    6    7 ar 
     9    8    9 2  
    10    8   10 2  
    11   11    8 1  
    12   11   12 1  
    13   16   11 1  
    14   12   13 1  
    15   13   14 1  
    16   13   15 1  
    17   17   16 1  
    18   17   18 1  
    19   19   17 1  
    20   19   20 1  
    21   32   19 1  
    22   20   21 am 
    23   21   22 2  
    24   21   23 1  
    25   23   24 1  
    26   24   25 1  
    27   24   31 1  
    28   25   26 1  
    29   27   26 1  
    30   27   28 1  
    31   31   27 1  
    32   29   28 1  
    33   30   29 1  
    34   31   30 1  
    35   38   32 1  
    36   33   34 ar 
    37   33   38 ar 
    38   34   35 ar 
    39   35   36 ar 
    40   36   37 ar 
    41   37   38 ar 
    42    1   39 1  
    43    1   40 1  
    44    3   41 1  
    45    4   42 1  
    46    6   43 1  
    47    7   44 1  
    48   12   45 1  
    49   12   46 1  
    50   13   47 1  
    51   14   48 1  
    52   14   49 1  
    53   14   50 1  
    54   15   51 1  
    55   15   52 1  
    56   15   53 1  
    57   16   54 1  
    58   16   55 1  
    59   17   56 1  
    60   18   57 1  
    61   19   58 1  
    62   20   59 1  
    63   24   60 1  
    64   25   61 1  
    65   25   62 1  
    66   27   63 1  
    67   29   64 1  
    68   29   65 1  
    69   30   66 1  
    70   30   67 1  
    71   31   68 1  
    72   32   69 1  
    73   32   70 1  
    74   33   71 1  
    75   34   72 1  
    76   35   73 1  
    77   36   74 1  
    78   37   75 1  
@<TRIPOS>SUBSTRUCTURE
     1 SUB1        1 GROUP

