2hs2_ligand
  -I-interpret- 

 75 78  0  0  0  0  0  0  0  0999 V2000
   -1.1340    8.3150   29.9190 N   0  0  0  0  0
   -0.6920    8.5640   31.1990 C   0  0  0  0  0
    0.5620    8.1180   31.6170 C   0  0  0  0  0
    1.0190    8.3660   32.9120 C   0  0  0  0  0
    0.2090    9.0700   33.8020 C   0  0  0  0  0
   -1.0480    9.5190   33.3890 C   0  0  0  0  0
   -1.5170    9.2760   32.0910 C   0  0  0  0  0
    0.8330    9.2460   35.4870 S   0  0  0  0  0
    2.2730    9.0540   35.3980 O   0  0  0  0  0
    0.3180   10.5000   36.0330 O   0  0  0  0  0
    0.1790    7.9900   36.4100 N   0  0  0  0  0
   -1.2770    7.9740   36.6370 C   0  0  0  0  0
   -1.6860    7.6240   38.0700 C   0  0  0  0  0
   -1.3470    8.7190   39.0730 C   0  0  0  0  0
   -3.1710    7.2880   38.0850 C   0  0  0  0  0
    0.8050    6.6540   36.3730 C   0  0  0  0  0
    1.5520    6.3500   37.6780 C   0  0  0  0  0
    1.9230    4.9680   37.6790 O   0  0  0  0  0
    2.7400    7.2720   37.9880 C   0  0  0  0  0
    3.0860    7.0990   39.3960 N   0  0  0  0  0
    2.9650    7.9710   40.4010 C   0  0  0  0  0
    2.5800    9.1220   40.2330 O   0  0  0  0  0
    3.3200    7.4150   41.6010 O   0  0  0  0  0
    3.3320    8.3160   42.7500 C   0  0  0  0  0
    2.9340    7.4970   43.9950 C   0  0  0  0  0
    4.0870    6.6850   44.2790 O   0  0  0  0  0
    5.2350    7.4880   43.9720 C   0  0  0  0  0
    6.1130    6.7090   43.2210 O   0  0  0  0  0
    6.2500    7.2350   41.9090 C   0  0  0  0  0
    5.8000    8.6640   41.9280 C   0  0  0  0  0
    4.7770    8.6940   43.1060 C   0  0  0  0  0
    3.9670    6.9630   37.0980 C   0  0  0  0  0
    6.2560    7.2800   38.1610 C   0  0  0  0  0
    7.3030    8.1060   38.5460 C   0  0  0  0  0
    7.2450    9.4680   38.3150 C   0  0  0  0  0
    6.1250   10.0360   37.6900 C   0  0  0  0  0
    5.0670    9.2190   37.2970 C   0  0  0  0  0
    5.1290    7.8460   37.5300 C   0  0  0  0  0
   -0.5429    7.8001   29.2664 H   0  0  0  0  0
   -2.0526    8.6455   29.6233 H   0  0  0  0  0
    1.1948    7.5671   30.9211 H   0  0  0  0  0
    2.0013    8.0122   33.2252 H   0  0  0  0  0
   -1.6760   10.0689   34.0900 H   0  0  0  0  0
   -2.4992    9.6305   31.7785 H   0  0  0  0  0
   -1.6950    7.2054   35.9869 H   0  0  0  0  0
   -1.6447    8.9800   36.4347 H   0  0  0  0  0
   -1.1071    6.7574   38.3893 H   0  0  0  0  0
   -0.2710    8.8928   39.0694 H   0  0  0  0  0
   -1.8655    9.6369   38.7960 H   0  0  0  0  0
   -1.6628    8.4082   40.0689 H   0  0  0  0  0
   -3.7407    8.1495   37.7365 H   0  0  0  0  0
   -3.3566    6.4382   37.4281 H   0  0  0  0  0
   -3.4751    7.0367   39.1011 H   0  0  0  0  0
    1.5202    6.6293   35.5508 H   0  0  0  0  0
    0.0214    5.9080   36.2407 H   0  0  0  0  0
    0.8629    6.5609   38.4958 H   0  0  0  0  0
    2.3920    4.7643   38.4915 H   0  0  0  0  0
    2.4525    8.3023   37.7782 H   0  0  0  0  0
    3.4726    6.1889   39.6463 H   0  0  0  0  0
    2.6947    9.1676   42.5119 H   0  0  0  0  0
    2.0439    6.8932   43.8182 H   0  0  0  0  0
    2.6692    8.1373   44.8364 H   0  0  0  0  0
    5.7157    7.8423   44.8839 H   0  0  0  0  0
    5.6428    6.6603   41.2096 H   0  0  0  0  0
    7.2897    7.1739   41.5875 H   0  0  0  0  0
    5.3635    8.9821   40.9812 H   0  0  0  0  0
    6.6236    9.3645   42.0658 H   0  0  0  0  0
    4.7681    9.7017   43.5214 H   0  0  0  0  0
    3.7230    7.1618   36.0544 H   0  0  0  0  0
    4.2434    5.9141   37.2051 H   0  0  0  0  0
    6.3044    6.2066   38.3442 H   0  0  0  0  0
    8.1781    7.6774   39.0345 H   0  0  0  0  0
    8.0752   10.1047   38.6206 H   0  0  0  0  0
    6.0826   11.1107   37.5128 H   0  0  0  0  0
    4.1938    9.6520   36.8090 H   0  0  0  0  0
  2  1  1  0  0  0
  3  2  4  0  0  0
  7  2  4  0  0  0
  4  3  4  0  0  0
  5  4  4  0  0  0
  5  6  4  0  0  0
  8  5  1  0  0  0
  6  7  4  0  0  0
  8  9  2  0  0  0
  8 10  2  0  0  0
 11  8  1  0  0  0
 11 12  1  0  0  0
 16 11  1  0  0  0
 12 13  1  0  0  0
 13 14  1  0  0  0
 13 15  1  0  0  0
 17 16  1  0  0  0
 17 18  1  0  0  0
 19 17  1  0  0  0
 19 20  1  0  0  0
 32 19  1  0  0  0
 20 21  1  0  0  0
 21 22  2  0  0  0
 21 23  1  0  0  0
 23 24  1  0  0  0
 24 25  1  0  0  0
 24 31  1  0  0  0
 25 26  1  0  0  0
 27 26  1  0  0  0
 27 28  1  0  0  0
 31 27  1  0  0  0
 29 28  1  0  0  0
 30 29  1  0  0  0
 31 30  1  0  0  0
 38 32  1  0  0  0
 33 34  4  0  0  0
 33 38  4  0  0  0
 34 35  4  0  0  0
 35 36  4  0  0  0
 36 37  4  0  0  0
 37 38  4  0  0  0
  1 39  1  0  0  0
  1 40  1  0  0  0
  3 41  1  0  0  0
  4 42  1  0  0  0
  6 43  1  0  0  0
  7 44  1  0  0  0
 12 45  1  0  0  0
 12 46  1  0  0  0
 13 47  1  0  0  0
 14 48  1  0  0  0
 14 49  1  0  0  0
 14 50  1  0  0  0
 15 51  1  0  0  0
 15 52  1  0  0  0
 15 53  1  0  0  0
 16 54  1  0  0  0
 16 55  1  0  0  0
 17 56  1  0  0  0
 18 57  1  0  0  0
 19 58  1  0  0  0
 20 59  1  0  0  0
 24 60  1  0  0  0
 25 61  1  0  0  0
 25 62  1  0  0  0
 27 63  1  0  0  0
 29 64  1  0  0  0
 29 65  1  0  0  0
 30 66  1  0  0  0
 30 67  1  0  0  0
 31 68  1  0  0  0
 32 69  1  0  0  0
 32 70  1  0  0  0
 33 71  1  0  0  0
 34 72  1  0  0  0
 35 73  1  0  0  0
 36 74  1  0  0  0
 37 75  1  0  0  0
M  END
$$$$
