### 
### Created by X-TOOL on Tue Oct 25 01:25:48 2005
### 

@<TRIPOS>MOLECULE
1aid_ligand
   56    59     1     0     0
SMALL
GAST_HUCK


@<TRIPOS>ATOM
      1 N1         63.8400   38.1860    0.2080 N.3       1 SUB1       -0.304
      2 C2         64.9660   37.9320    1.1280 C.3       1 SUB1       -0.006
      3 C3         64.4870   37.5930    2.5450 C.3       1 SUB1       -0.036
      4 C4         63.4750   38.6190    3.0900 C.3       1 SUB1        0.058
      5 O19        64.0940   39.9020    3.1010 O.3       1 SUB1       -0.424
      6 C5         62.2980   38.6900    2.1020 C.3       1 SUB1       -0.036
      7 C6         62.7860   39.0910    0.7070 C.3       1 SUB1       -0.006
      8 C7         64.2990   38.7080   -1.0960 C.3       1 SUB1       -0.002
      9 C8         65.1080   37.6800   -1.8950 C.3       1 SUB1       -0.046
     10 C9         66.1910   38.4350   -2.6840 C.3       1 SUB1       -0.054
     11 C10        66.4920   37.7880   -4.0510 C.3       1 SUB1        0.049
     12 C12        65.3550   37.8840   -4.9100 C.ar      1 SUB1       -0.033
     13 C13        64.9660   39.1330   -5.4240 C.ar      1 SUB1       -0.039
     14 C14        63.7880   39.2780   -6.1630 C.ar      1 SUB1        0.003
     15 C15        62.9840   38.1650   -6.4090 C.ar      1 SUB1        0.167
     16 F18        61.8000   38.3040   -7.0750 F         1 SUB1       -0.156
     17 C16        63.3860   36.9110   -5.9410 C.ar      1 SUB1        0.003
     18 C17        64.5670   36.7620   -5.2050 C.ar      1 SUB1       -0.039
     19 C20        63.1190   38.3480    4.4490 C.ar      1 SUB1       -0.023
     20 C21        64.1340   38.1280    5.4000 C.ar      1 SUB1       -0.037
     21 C22        63.8320   37.7680    6.7150 C.ar      1 SUB1       -0.018
     22 C23        62.5010   37.6390    7.1130 C.ar      1 SUB1        0.071
     23 CL6        62.1440   37.0960    8.7360 Cl        1 SUB1       -0.042
     24 C24        61.4750   37.8990    6.1890 C.ar      1 SUB1       -0.018
     25 C25        61.7790   38.2660    4.8680 C.ar      1 SUB1       -0.037
     26 S51        66.9760   36.0570   -3.7650 S.3       1 SUB1       -0.187
     27 C52        68.3990   36.0000   -4.8960 C.3       1 SUB1       -0.006
     28 C55        68.8510   37.3620   -5.4300 C.3       1 SUB1       -0.006
     29 S58        67.8790   38.7380   -4.7840 S.3       1 SUB1       -0.187
     30 H21        65.5976   38.8315    1.1727 H         1 SUB1        0.042
     31 H22        65.5565   37.0881    0.7417 H         1 SUB1        0.042
     32 H31        65.3590   37.5682    3.2151 H         1 SUB1        0.021
     33 H32        64.0095   36.6022    2.5278 H         1 SUB1        0.021
     34 H51        63.4804   40.5456    3.4353 H         1 SUB1        0.196
     35 H61        61.5717   39.4352    2.4585 H         1 SUB1        0.021
     36 H62        61.8139   37.7039    2.0455 H         1 SUB1        0.021
     37 H71        61.9345   39.0622    0.0112 H         1 SUB1        0.042
     38 H72        63.1883   40.1138    0.7521 H         1 SUB1        0.042
     39 H81        64.9303   39.5912   -0.9187 H         1 SUB1        0.043
     40 H82        63.4187   38.9993   -1.6877 H         1 SUB1        0.043
     41 H91        64.4460   37.1431   -2.5903 H         1 SUB1        0.027
     42 H92        65.5794   36.9612   -1.2087 H         1 SUB1        0.027
     43 H101       67.1161   38.4466   -2.0890 H         1 SUB1        0.018
     44 H102       65.8494   39.4672   -2.8509 H         1 SUB1        0.018
     45 H131       65.5911   40.0002   -5.2441 H         1 SUB1        0.084
     46 H141       63.5006   40.2516   -6.5433 H         1 SUB1        0.069
     47 H171       62.7742   36.0412   -6.1511 H         1 SUB1        0.069
     48 H181       64.8725   35.7798   -4.8631 H         1 SUB1        0.084
     49 H201       65.1711   38.2404    5.1052 H         1 SUB1        0.085
     50 H211       64.6307   37.5890    7.4257 H         1 SUB1        0.070
     51 H241       60.4395   37.8156    6.4986 H         1 SUB1        0.070
     52 H251       60.9794   38.4865    4.1701 H         1 SUB1        0.085
     53 H271       68.1280   35.3687   -5.7551 H         1 SUB1        0.038
     54 H272       69.2446   35.5454   -4.3591 H         1 SUB1        0.038
     55 H281       68.7610   37.3549   -6.5263 H         1 SUB1        0.038
     56 H282       69.9035   37.5156   -5.1495 H         1 SUB1        0.038
@<TRIPOS>BOND
     1    1    2 1  
     2    1    7 1  
     3    1    8 1  
     4    2    3 1  
     5    3    4 1  
     6    4    5 1  
     7    4    6 1  
     8    4   19 1  
     9    6    7 1  
    10    8    9 1  
    11    9   10 1  
    12   10   11 1  
    13   11   12 1  
    14   11   26 1  
    15   11   29 1  
    16   12   13 ar 
    17   12   18 ar 
    18   13   14 ar 
    19   14   15 ar 
    20   15   16 1  
    21   15   17 ar 
    22   17   18 ar 
    23   19   20 ar 
    24   19   25 ar 
    25   20   21 ar 
    26   21   22 ar 
    27   22   23 1  
    28   22   24 ar 
    29   24   25 ar 
    30   26   27 1  
    31   27   28 1  
    32   28   29 1  
    33    2   30 1  
    34    2   31 1  
    35    3   32 1  
    36    3   33 1  
    37    5   34 1  
    38    6   35 1  
    39    6   36 1  
    40    7   37 1  
    41    7   38 1  
    42    8   39 1  
    43    8   40 1  
    44    9   41 1  
    45    9   42 1  
    46   10   43 1  
    47   10   44 1  
    48   13   45 1  
    49   14   46 1  
    50   17   47 1  
    51   18   48 1  
    52   20   49 1  
    53   21   50 1  
    54   24   51 1  
    55   25   52 1  
    56   27   53 1  
    57   27   54 1  
    58   28   55 1  
    59   28   56 1  
@<TRIPOS>SUBSTRUCTURE
     1 SUB1        1 GROUP

