1ndz_ligand
  -I-interpret- 

 66 70  0  0  0  0  0  0  0  0999 V2000
   51.2620   54.3940   21.0460 C   0  0  0  0  0
   51.2380   55.3230   22.0730 N   0  0  0  0  0
   51.1550   54.5960   23.2290 C   0  0  0  0  0
   51.0260   53.3560   23.0160 N   0  0  0  0  0
   51.0190   53.2330   21.6000 C   0  0  0  0  0
   50.8310   51.9830   20.8660 C   0  0  0  0  0
   50.5770   51.9510   19.6320 O   0  0  0  0  0
   50.8470   50.9090   21.6410 N   0  0  0  0  0
   51.1410   56.8020   21.8880 C   0  0  0  0  0
   52.5180   57.6040   21.7930 C   0  0  0  0  0
   53.6000   57.3210   22.6900 O   0  0  0  0  0
   50.3710   57.1940   20.6290 C   0  0  0  0  0
   48.8920   56.6160   20.6120 C   0  0  0  0  0
   48.2320   56.7680   19.2010 N   0  0  0  0  0
   47.7640   57.9340   18.6950 C   0  0  0  0  0
   47.2130   57.6920   17.5170 C   0  0  0  0  0
   47.3370   56.2520   17.3280 C   0  0  0  0  0
   48.0670   55.7380   18.3780 C   0  0  0  0  0
   47.1210   55.4740   16.2610 C   0  0  0  0  0
   47.4630   54.2100   16.3080 C   0  0  0  0  0
   48.1200   53.7120   17.3910 C   0  0  0  0  0
   48.3740   54.4780   18.4590 C   0  0  0  0  0
   48.4400   52.4840   17.5570 N   0  0  0  0  0
   48.2950   51.5180   16.7830 C   0  0  0  0  0
   47.6070   51.5150   15.7840 O   0  0  0  0  0
   49.1440   50.2820   17.1240 C   0  0  0  0  0
   48.5860   48.9020   16.6980 C   0  0  0  0  0
   44.6010   47.6190   21.1320 C   0  0  0  0  0
   45.8280   48.2110   20.7930 C   0  0  0  0  0
   46.2660   48.3270   19.4890 C   0  0  0  0  0
   45.6270   47.6310   18.4380 C   0  0  0  0  0
   44.4090   47.0580   18.7170 C   0  0  0  0  0
   43.9350   46.9960   20.0780 C   0  0  0  0  0
   47.4050   48.8850   18.9480 N   0  0  0  0  0
   47.4170   48.5800   17.6420 C   0  0  0  0  0
   46.3460   47.8930   17.2600 N   0  0  0  0  0
   46.0040   47.4390   15.9250 C   0  0  0  0  0
   51.4459   54.5898   19.9906 H   0  0  0  0  0
   51.1956   55.0369   24.2239 H   0  0  0  0  0
   50.7271   50.0010   21.2396 H   0  0  0  0  0
   50.9790   51.0062   22.6275 H   0  0  0  0  0
   50.5832   57.1880   22.7539 H   0  0  0  0  0
   52.9147   57.4401   20.7802 H   0  0  0  0  0
   52.2790   58.6683   21.9345 H   0  0  0  0  0
   54.3337   57.8899   22.4888 H   0  0  0  0  0
   50.3096   58.2908   20.5729 H   0  0  0  0  0
   50.9007   56.8025   19.7480 H   0  0  0  0  0
   48.9162   55.5470   20.8699 H   0  0  0  0  0
   48.2788   57.1642   21.3423 H   0  0  0  0  0
   47.8303   58.9081   19.1774 H   0  0  0  0  0
   46.7638   58.4129   16.8356 H   0  0  0  0  0
   46.6675   55.8854   15.3665 H   0  0  0  0  0
   47.2209   53.5560   15.4781 H   0  0  0  0  0
   48.8185   54.0633   19.3565 H   0  0  0  0  0
   48.8683   52.2684   18.4346 H   0  0  0  0  0
   50.1216   50.3975   16.6332 H   0  0  0  0  0
   49.2738   50.2518   18.2159 H   0  0  0  0  0
   48.2212   48.9388   15.6609 H   0  0  0  0  0
   49.3610   48.1276   16.7957 H   0  0  0  0  0
   44.2011   47.6445   22.1392 H   0  0  0  0  0
   46.4577   48.5929   21.5884 H   0  0  0  0  0
   43.8044   46.6525   17.9138 H   0  0  0  0  0
   43.0263   46.4439   20.2890 H   0  0  0  0  0
   46.7608   47.8072   15.2167 H   0  0  0  0  0
   45.9900   46.3395   15.8948 H   0  0  0  0  0
   45.0195   47.8347   15.6350 H   0  0  0  0  0
  2  1  1  0  0  0
  1  5  2  0  0  0
  2  3  1  0  0  0
  9  2  1  0  0  0
  3  4  2  0  0  0
  4  5  1  0  0  0
  5  6  1  0  0  0
  6  7  2  0  0  0
  6  8  1  0  0  0
  9 10  1  0  0  0
 12  9  1  0  0  0
 10 11  1  0  0  0
 13 12  1  0  0  0
 14 13  1  0  0  0
 14 15  1  0  0  0
 18 14  1  0  0  0
 16 15  2  0  0  0
 17 16  1  0  0  0
 18 17  4  0  0  0
 19 17  4  0  0  0
 22 18  4  0  0  0
 20 19  4  0  0  0
 21 20  4  0  0  0
 21 22  4  0  0  0
 23 21  1  0  0  0
 24 23  1  0  0  0
 24 25  2  0  0  0
 26 24  1  0  0  0
 27 26  1  0  0  0
 35 27  1  0  0  0
 29 28  4  0  0  0
 28 33  4  0  0  0
 30 29  4  0  0  0
 30 31  4  0  0  0
 34 30  1  0  0  0
 31 32  4  0  0  0
 32 33  4  0  0  0
 35 34  2  0  0  0
 35 36  1  0  0  0
 36 31  1  0  0  0
 36 37  1  0  0  0
  1 38  1  0  0  0
  3 39  1  0  0  0
  8 40  1  0  0  0
  8 41  1  0  0  0
  9 42  1  0  0  0
 10 43  1  0  0  0
 10 44  1  0  0  0
 11 45  1  0  0  0
 12 46  1  0  0  0
 12 47  1  0  0  0
 13 48  1  0  0  0
 13 49  1  0  0  0
 15 50  1  0  0  0
 16 51  1  0  0  0
 19 52  1  0  0  0
 20 53  1  0  0  0
 22 54  1  0  0  0
 23 55  1  0  0  0
 26 56  1  0  0  0
 26 57  1  0  0  0
 27 58  1  0  0  0
 27 59  1  0  0  0
 28 60  1  0  0  0
 29 61  1  0  0  0
 32 62  1  0  0  0
 33 63  1  0  0  0
 37 64  1  0  0  0
 37 65  1  0  0  0
 37 66  1  0  0  0
M  END
$$$$
