1bap_ligand
  -I-interpret- 

 20 20  0  0  0  0  0  0  0  0999 V2000
   14.3640   56.8380   55.1890 C   0  0  0  0  0
   12.9110   57.1690   54.8300 C   0  0  0  0  0
   12.4400   56.2570   53.7020 C   0  0  0  0  0
   13.3660   56.4000   52.4950 C   0  0  0  0  0
   14.7910   56.1060   52.9230 C   0  0  0  0  0
   14.4030   55.5460   55.7260 O   0  0  0  0  0
   12.0680   57.0900   55.9750 O   0  0  0  0  0
   11.0980   56.5510   53.3130 O   0  0  0  0  0
   13.2490   57.6710   51.8650 O   0  0  0  0  0
   15.1900   56.9680   54.0210 O   0  0  0  0  0
   14.7210   57.5478   55.9498 H   0  0  0  0  0
   12.8771   58.2054   54.4630 H   0  0  0  0  0
   12.4794   55.2168   54.0575 H   0  0  0  0  0
   13.0724   55.6414   51.7546 H   0  0  0  0  0
   15.4652   56.2737   52.0701 H   0  0  0  0  0
   14.8612   55.0566   53.2451 H   0  0  0  0  0
   13.8446   55.5063   56.4936 H   0  0  0  0  0
   12.0607   56.1975   56.3005 H   0  0  0  0  0
   11.0528   57.4408   52.9832 H   0  0  0  0  0
   12.3446   57.8163   51.6131 H   0  0  0  0  0
  1  2  1  0  0  0
  1  6  1  0  0  0
  1 10  1  0  0  0
  2  3  1  0  0  0
  2  7  1  0  0  0
  3  4  1  0  0  0
  3  8  1  0  0  0
  4  5  1  0  0  0
  4  9  1  0  0  0
  5 10  1  0  0  0
  1 11  1  0  0  0
  2 12  1  0  0  0
  3 13  1  0  0  0
  4 14  1  0  0  0
  5 15  1  0  0  0
  5 16  1  0  0  0
  6 17  1  0  0  0
  7 18  1  0  0  0
  8 19  1  0  0  0
  9 20  1  0  0  0
M  END
$$$$
