### 
### Created by X-TOOL on Mon Oct 24 22:35:15 2005
### 

@<TRIPOS>MOLECULE
1bap_ligand
   20    20     1     0     0
SMALL
GAST_HUCK


@<TRIPOS>ATOM
      1 C1         14.3640   56.8380   55.1890 C.3       1 SUB1        0.185
      2 C2         12.9110   57.1690   54.8300 C.3       1 SUB1        0.134
      3 C3         12.4400   56.2570   53.7020 C.3       1 SUB1        0.114
      4 C4         13.3660   56.4000   52.4950 C.3       1 SUB1        0.107
      5 C5         14.7910   56.1060   52.9230 C.3       1 SUB1        0.079
      6 O1         14.4030   55.5460   55.7260 O.3       1 SUB1       -0.365
      7 O2         12.0680   57.0900   55.9750 O.3       1 SUB1       -0.384
      8 O3         11.0980   56.5510   53.3130 O.3       1 SUB1       -0.386
      9 O4         13.2490   57.6710   51.8650 O.3       1 SUB1       -0.387
     10 O5         15.1900   56.9680   54.0210 O.3       1 SUB1       -0.346
     11 H11        14.7210   57.5478   55.9498 H         1 SUB1        0.094
     12 H21        12.8771   58.2054   54.4630 H         1 SUB1        0.067
     13 H31        12.4794   55.2168   54.0575 H         1 SUB1        0.065
     14 H41        13.0724   55.6414   51.7546 H         1 SUB1        0.064
     15 H51        15.4652   56.2737   52.0701 H         1 SUB1        0.059
     16 H52        14.8612   55.0566   53.2451 H         1 SUB1        0.059
     17 H61        13.8446   55.5063   56.4936 H         1 SUB1        0.213
     18 H71        12.0607   56.1975   56.3005 H         1 SUB1        0.210
     19 H81        11.0528   57.4408   52.9832 H         1 SUB1        0.210
     20 H91        12.3446   57.8163   51.6131 H         1 SUB1        0.210
@<TRIPOS>BOND
     1    1    2 1  
     2    1    6 1  
     3    1   10 1  
     4    2    3 1  
     5    2    7 1  
     6    3    4 1  
     7    3    8 1  
     8    4    5 1  
     9    4    9 1  
    10    5   10 1  
    11    1   11 1  
    12    2   12 1  
    13    3   13 1  
    14    4   14 1  
    15    5   15 1  
    16    5   16 1  
    17    6   17 1  
    18    7   18 1  
    19    8   19 1  
    20    9   20 1  
@<TRIPOS>SUBSTRUCTURE
     1 SUB1        1 GROUP

