### 
### Created by X-TOOL on Mon Oct 24 23:22:49 2005
### 

@<TRIPOS>MOLECULE
1e1v_ligand
   35    37     1     0     0
SMALL
GAST_HUCK


@<TRIPOS>ATOM
      1 H91         2.6583   27.5433    9.4617 H         1 SUB1        0.063
      2 N1          2.4450   28.9910    7.3460 N.ar      1 SUB1       -0.244
      3 C2          2.9810   29.9600    6.6140 C.ar      1 SUB1        0.156
      4 N3          2.3900   31.1700    6.6090 N.ar      1 SUB1       -0.261
      5 C4          1.3010   31.4190    7.3260 C.ar      1 SUB1        0.144
      6 C5          0.7490   30.4080    8.0490 C.ar      1 SUB1        0.104
      7 C6          1.3270   29.1410    8.0570 C.ar      1 SUB1        0.175
      8 O6          0.7220   28.1600    8.8410 O.3       1 SUB1       -0.293
      9 C9          1.7060   27.1180    9.1120 C.3       1 SUB1        0.080
     10 N7         -0.2920   31.0010    8.6180 N.2       1 SUB1       -0.302
     11 C8         -0.4920   32.3190    8.2780 C.2       1 SUB1        0.103
     12 N9          0.5880   32.5280    7.4900 N.pl3     1 SUB1       -0.241
     13 N2          4.1220   29.9810    5.8800 N.pl3     1 SUB1       -0.311
     14 C10         0.9790   26.3030   10.2570 C.3       1 SUB1       -0.012
     15 C11        -0.2230   25.5700    9.5700 C.3       1 SUB1       -0.048
     16 C12        -0.7780   24.5780   10.5920 C.3       1 SUB1       -0.053
     17 C13         0.1720   23.3870   10.3210 C.3       1 SUB1       -0.053
     18 C14         1.3640   23.9990   11.1710 C.3       1 SUB1       -0.053
     19 C15         1.8480   25.0470   10.1260 C.3       1 SUB1       -0.048
     20 H92         1.8872   26.4934    8.2248 H         1 SUB1        0.063
     21 H111       -1.2923   33.0006    8.5623 H         1 SUB1        0.132
     22 H121        0.8282   33.4366    7.0685 H         1 SUB1        0.238
     23 H131        4.6904   29.1271    5.7871 H         1 SUB1        0.181
     24 H132        4.4198   30.8509    5.4157 H         1 SUB1        0.181
     25 H141        0.8220   26.7971   11.2271 H         1 SUB1        0.033
     26 H151        0.1222   25.0357    8.6726 H         1 SUB1        0.027
     27 H152       -0.9988   26.2971    9.2882 H         1 SUB1        0.027
     28 H161       -1.8281   24.3215   10.3885 H         1 SUB1        0.026
     29 H162       -0.6850   24.9527   11.6220 H         1 SUB1        0.026
     30 H171        0.4185   23.2634    9.2561 H         1 SUB1        0.026
     31 H172       -0.2023   22.4343   10.7237 H         1 SUB1        0.026
     32 H181        2.1378   23.2526   11.4036 H         1 SUB1        0.026
     33 H182        1.0152   24.4682   12.1027 H         1 SUB1        0.026
     34 H191        2.9006   25.3026   10.3173 H         1 SUB1        0.027
     35 H192        1.7499   24.6322    9.1120 H         1 SUB1        0.027
@<TRIPOS>BOND
     1    2    7 ar 
     2    2    3 ar 
     3    3   13 1  
     4    3    4 ar 
     5    4    5 ar 
     6    5   12 1  
     7    5    6 ar 
     8    6   10 1  
     9    6    7 ar 
    10    7    8 1  
    11    8    9 1  
    12    9   14 1  
    13   14   19 1  
    14   14   15 1  
    15   15   16 1  
    16   16   17 1  
    17   17   18 1  
    18   18   19 1  
    19   10   11 2  
    20   11   12 1  
    21    9    1 1  
    22    9   20 1  
    23   11   21 1  
    24   12   22 1  
    25   13   23 1  
    26   13   24 1  
    27   14   25 1  
    28   15   26 1  
    29   15   27 1  
    30   16   28 1  
    31   16   29 1  
    32   17   30 1  
    33   17   31 1  
    34   18   32 1  
    35   18   33 1  
    36   19   34 1  
    37   19   35 1  
@<TRIPOS>SUBSTRUCTURE
     1 SUB1        1 GROUP

