### 
### Created by X-TOOL on Sun Jun  3 11:24:32 2007
### 

@<TRIPOS>MOLECULE
2fw6_ligand
   18    17     1     0     0
SMALL
GAST_HUCK


@<TRIPOS>ATOM
      1 C1         34.6890   65.5750 -149.1450 C.2       1 SUB1        0.348
      2 O1         33.9320   66.4800 -149.5610 O.2       1 SUB1       -0.262
      3 O2         34.7490   65.2390 -147.9440 O.2       1 SUB1       -0.262
      4 C2         35.5570   64.8310 -150.1440 C.3       1 SUB1        0.101
      5 C3         36.1100   65.7420 -151.2450 C.3       1 SUB1        0.204
      6 O7         35.0110   66.3270 -151.9520 O.3       1 SUB1       -0.377
      7 C4         36.9690   64.9060 -152.2020 C.3       1 SUB1        0.101
      8 C5         36.1370   64.0340 -153.1270 C.2       1 SUB1        0.348
      9 O3         36.1120   64.3180 -154.3430 O.2       1 SUB1       -0.262
     10 O4         35.5020   63.0730 -152.6420 O.2       1 SUB1       -0.262
     11 C6         36.9590   66.8610 -150.6430 C.2       1 SUB1        0.393
     12 O5         37.9510   66.5270 -149.9660 O.2       1 SUB1       -0.241
     13 O6         36.6350   68.0530 -150.8640 O.2       1 SUB1       -0.241
     14 H          34.9397   64.0692 -150.6201 H         1 SUB1        0.051
     15 H          36.4041   64.4106 -149.6020 H         1 SUB1        0.051
     16 H          34.4761   66.8399 -151.3418 H         1 SUB1        0.209
     17 H          37.5985   64.2503 -151.6005 H         1 SUB1        0.051
     18 H          37.5468   65.5932 -152.8200 H         1 SUB1        0.051
@<TRIPOS>BOND
     1    1    2 2  
     2    1    3 2  
     3    1    4 1  
     4    4    5 1  
     5    5    6 1  
     6    5    7 1  
     7    5   11 1  
     8    7    8 1  
     9    8    9 2  
    10    8   10 2  
    11   11   12 2  
    12   11   13 2  
    13    4   14 1  
    14    4   15 1  
    15    6   16 1  
    16    7   17 1  
    17    7   18 1  
@<TRIPOS>SUBSTRUCTURE
     1 SUB1        1 GROUP

