2fw6_ligand
  -I-interpret- 

 18 17  0  0  0  0  0  0  0  0999 V2000
   34.6890   65.5750 -149.1450 C   0  0  0  0  0
   33.9320   66.4800 -149.5610 O   0  5  0  0  0
   34.7490   65.2390 -147.9440 O   0  0  0  0  0
   35.5570   64.8310 -150.1440 C   0  0  0  0  0
   36.1100   65.7420 -151.2450 C   0  0  0  0  0
   35.0110   66.3270 -151.9520 O   0  0  0  0  0
   36.9690   64.9060 -152.2020 C   0  0  0  0  0
   36.1370   64.0340 -153.1270 C   0  0  0  0  0
   36.1120   64.3180 -154.3430 O   0  0  0  0  0
   35.5020   63.0730 -152.6420 O   0  5  0  0  0
   36.9590   66.8610 -150.6430 C   0  0  0  0  0
   37.9510   66.5270 -149.9660 O   0  0  0  0  0
   36.6350   68.0530 -150.8640 O   0  5  0  0  0
   34.9397   64.0692 -150.6201 H   0  0  0  0  0
   36.4041   64.4106 -149.6020 H   0  0  0  0  0
   34.4761   66.8399 -151.3418 H   0  0  0  0  0
   37.5985   64.2503 -151.6005 H   0  0  0  0  0
   37.5468   65.5932 -152.8200 H   0  0  0  0  0
  1  2  1  0  0  0
  1  3  2  0  0  0
  1  4  1  0  0  0
  4  5  1  0  0  0
  5  6  1  0  0  0
  5  7  1  0  0  0
  5 11  1  0  0  0
  7  8  1  0  0  0
  8  9  2  0  0  0
  8 10  1  0  0  0
 11 12  2  0  0  0
 11 13  1  0  0  0
  4 14  1  0  0  0
  4 15  1  0  0  0
  6 16  1  0  0  0
  7 17  1  0  0  0
  7 18  1  0  0  0
M  END
$$$$
