### 
### Created by X-TOOL on Mon Oct 24 23:08:55 2005
### 

@<TRIPOS>MOLECULE
1gjb_ligand
   42    45     1     0     0
SMALL
GAST_HUCK


@<TRIPOS>ATOM
      1 H191        9.5496    0.2789   23.1753 H         1 SUB1        0.057
      2 H201       10.5954    2.2433   22.0257 H         1 SUB1        0.055
      3 H231        7.7693    2.9241   26.1142 H         1 SUB1        0.059
      4 H251        7.2359   -0.4452   27.1114 H         1 SUB1        0.192
      5 H252        7.7673    1.2564   27.1821 H         1 SUB1        0.192
      6 H261        8.1663   -0.8310   23.7239 H         1 SUB1        0.192
      7 H262        7.4725   -1.6228   25.1642 H         1 SUB1        0.192
      8 H281        8.3566    5.4890   25.6813 H         1 SUB1        0.230
      9 H311        8.9290    7.3720   25.7588 H         1 SUB1        0.064
     10 H321        9.3285    9.7984   25.6909 H         1 SUB1        0.054
     11 H331       10.4577   10.7969   23.7474 H         1 SUB1        0.063
     12 H361       10.7319    5.8901   21.8548 H         1 SUB1        0.254
     13 H381       12.9599    8.1225   21.4737 H         1 SUB1        0.060
     14 H391       14.0827    9.2677   19.6085 H         1 SUB1        0.061
     15 H401       13.1456   11.3642   18.6846 H         1 SUB1        0.060
     16 H411       11.0667   12.3024   19.6506 H         1 SUB1        0.061
     17 H421        9.9510   11.1612   21.5181 H         1 SUB1        0.060
     18 C1          8.5770    1.4330   24.7450 C.ar      1 SUB1        0.173
     19 C2          9.3890    1.2760   23.5690 C.ar      1 SUB1       -0.022
     20 C3          9.9820    2.3660   22.9110 C.ar      1 SUB1       -0.058
     21 C4          9.7350    3.5850   23.4590 C.ar      1 SUB1        0.030
     22 C5          8.9740    3.7750   24.5540 C.ar      1 SUB1        0.085
     23 C6          8.3750    2.7410   25.2340 C.ar      1 SUB1        0.014
     24 C7          8.0160    0.3180   25.3880 C.cat     1 SUB1        0.311
     25 N1          7.6460    0.3810   26.6530 N.pl3     1 SUB1       -0.201
     26 N2          7.8750   -0.7900   24.7110 N.pl3     1 SUB1       -0.201
     27 N3         10.1270    4.7610   23.0840 N.2       1 SUB1       -0.311
     28 N4          8.8650    5.0490   24.9010 N.pl3     1 SUB1       -0.251
     29 C8          9.6080    5.5890   23.9410 C.2       1 SUB1        0.137
     30 C1'         9.8450    6.9610   23.8680 C.ar      1 SUB1        0.067
     31 C2'         9.4350    7.8020   24.9020 C.ar      1 SUB1       -0.051
     32 C3'         9.6540    9.1710   24.8690 C.ar      1 SUB1       -0.066
     33 C4'        10.2920    9.7260   23.7760 C.ar      1 SUB1       -0.057
     34 C5'        10.7260    8.9440   22.7130 C.ar      1 SUB1        0.020
     35 C6'        10.4980    7.5650   22.7660 C.ar      1 SUB1        0.121
     36 O6'        10.9450    6.8030   21.7010 O.3       1 SUB1       -0.323
     37 C1'        11.3660    9.5550   21.6460 C.ar      1 SUB1       -0.020
     38 C2'        12.5390    9.0410   21.0810 C.ar      1 SUB1       -0.057
     39 C3'        13.1740    9.6850   20.0270 C.ar      1 SUB1       -0.064
     40 C4'        12.6500   10.8610   19.5070 C.ar      1 SUB1       -0.064
     41 C5'        11.4860   11.3860   20.0500 C.ar      1 SUB1       -0.064
     42 C6'        10.8590   10.7380   21.1040 C.ar      1 SUB1       -0.057
@<TRIPOS>BOND
     1   19    1 1  
     2   20    2 1  
     3   23    3 1  
     4   25    4 1  
     5   25    5 1  
     6   26    6 1  
     7   26    7 1  
     8   28    8 1  
     9   31    9 1  
    10   32   10 1  
    11   33   11 1  
    12   36   12 1  
    13   38   13 1  
    14   39   14 1  
    15   40   15 1  
    16   41   16 1  
    17   42   17 1  
    18   24   18 1  
    19   18   23 ar 
    20   18   19 ar 
    21   19   20 ar 
    22   20   21 ar 
    23   21   27 1  
    24   22   21 ar 
    25   22   28 1  
    26   23   22 ar 
    27   28   29 1  
    28   29   30 1  
    29   27   29 2  
    30   30   35 ar 
    31   30   31 ar 
    32   31   32 ar 
    33   32   33 ar 
    34   34   33 ar 
    35   34   37 ar 
    36   35   34 ar 
    37   35   36 1  
    38   37   42 ar 
    39   37   38 ar 
    40   38   39 ar 
    41   39   40 ar 
    42   41   40 ar 
    43   42   41 ar 
    44   24   26 1  
    45   24   25 1  
@<TRIPOS>SUBSTRUCTURE
     1 SUB1        1 GROUP

