1gjb_ligand
  -I-interpret- 

 42 45  0  0  0  0  0  0  0  0999 V2000
    9.5496    0.2789   23.1753 H   0  0  0  0  0
   10.5954    2.2433   22.0257 H   0  0  0  0  0
    7.7693    2.9241   26.1142 H   0  0  0  0  0
    7.2359   -0.4452   27.1114 H   0  0  0  0  0
    7.7673    1.2564   27.1821 H   0  0  0  0  0
    8.1663   -0.8310   23.7239 H   0  0  0  0  0
    7.4725   -1.6228   25.1642 H   0  0  0  0  0
    8.3566    5.4890   25.6813 H   0  0  0  0  0
    8.9290    7.3720   25.7588 H   0  0  0  0  0
    9.3285    9.7984   25.6909 H   0  0  0  0  0
   10.4577   10.7969   23.7474 H   0  0  0  0  0
   10.7319    5.8901   21.8548 H   0  0  0  0  0
   12.9599    8.1225   21.4737 H   0  0  0  0  0
   14.0827    9.2677   19.6085 H   0  0  0  0  0
   13.1456   11.3642   18.6846 H   0  0  0  0  0
   11.0667   12.3024   19.6506 H   0  0  0  0  0
    9.9510   11.1612   21.5181 H   0  0  0  0  0
    8.5770    1.4330   24.7450 C   0  0  0  0  0
    9.3890    1.2760   23.5690 C   0  0  0  0  0
    9.9820    2.3660   22.9110 C   0  0  0  0  0
    9.7350    3.5850   23.4590 C   0  0  0  0  0
    8.9740    3.7750   24.5540 C   0  0  0  0  0
    8.3750    2.7410   25.2340 C   0  0  0  0  0
    8.0160    0.3180   25.3880 C   0  3  0  0  0
    7.6460    0.3810   26.6530 N   0  0  0  0  0
    7.8750   -0.7900   24.7110 N   0  0  0  0  0
   10.1270    4.7610   23.0840 N   0  0  0  0  0
    8.8650    5.0490   24.9010 N   0  0  0  0  0
    9.6080    5.5890   23.9410 C   0  0  0  0  0
    9.8450    6.9610   23.8680 C   0  0  0  0  0
    9.4350    7.8020   24.9020 C   0  0  0  0  0
    9.6540    9.1710   24.8690 C   0  0  0  0  0
   10.2920    9.7260   23.7760 C   0  0  0  0  0
   10.7260    8.9440   22.7130 C   0  0  0  0  0
   10.4980    7.5650   22.7660 C   0  0  0  0  0
   10.9450    6.8030   21.7010 O   0  0  0  0  0
   11.3660    9.5550   21.6460 C   0  0  0  0  0
   12.5390    9.0410   21.0810 C   0  0  0  0  0
   13.1740    9.6850   20.0270 C   0  0  0  0  0
   12.6500   10.8610   19.5070 C   0  0  0  0  0
   11.4860   11.3860   20.0500 C   0  0  0  0  0
   10.8590   10.7380   21.1040 C   0  0  0  0  0
 19  1  1  0  0  0
 20  2  1  0  0  0
 23  3  1  0  0  0
 25  4  1  0  0  0
 25  5  1  0  0  0
 26  6  1  0  0  0
 26  7  1  0  0  0
 28  8  1  0  0  0
 31  9  1  0  0  0
 32 10  1  0  0  0
 33 11  1  0  0  0
 36 12  1  0  0  0
 38 13  1  0  0  0
 39 14  1  0  0  0
 40 15  1  0  0  0
 41 16  1  0  0  0
 42 17  1  0  0  0
 24 18  1  0  0  0
 18 23  4  0  0  0
 18 19  4  0  0  0
 19 20  4  0  0  0
 20 21  4  0  0  0
 21 27  1  0  0  0
 22 21  4  0  0  0
 22 28  1  0  0  0
 23 22  4  0  0  0
 28 29  1  0  0  0
 29 30  1  0  0  0
 27 29  2  0  0  0
 30 35  4  0  0  0
 30 31  4  0  0  0
 31 32  4  0  0  0
 32 33  4  0  0  0
 34 33  4  0  0  0
 34 37  4  0  0  0
 35 34  4  0  0  0
 35 36  1  0  0  0
 37 42  4  0  0  0
 37 38  4  0  0  0
 38 39  4  0  0  0
 39 40  4  0  0  0
 41 40  4  0  0  0
 42 41  4  0  0  0
 24 26  1  0  0  0
 24 25  1  0  0  0
M  END
$$$$
