### 
### Created by X-TOOL on Tue Oct 25 01:18:38 2005
### 

@<TRIPOS>MOLECULE
1me7_ligand
   32    33     1     0     0
SMALL
GAST_HUCK


@<TRIPOS>ATOM
      1 P          67.9570   55.3270   15.0290 P.3       1 SUB1        0.205
      2 O1P        67.6050   55.2900   13.5810 O.co2     1 SUB1       -0.535
      3 O2P        68.7780   54.1180   15.3490 O.co2     1 SUB1       -0.535
      4 O3P        68.7380   56.6180   15.4120 O.co2     1 SUB1       -0.535
      5 O5         66.7120   55.3560   16.0190 O.3       1 SUB1       -0.320
      6 C5         65.7430   54.3150   15.9530 C.3       1 SUB1        0.094
      7 C4         64.6780   54.5090   16.9890 C.3       1 SUB1        0.118
      8 O4         63.9380   55.7210   16.5760 O.3       1 SUB1       -0.334
      9 C3         63.5770   53.4750   17.1690 C.3       1 SUB1        0.115
     10 O3         63.9780   52.3190   17.8810 O.3       1 SUB1       -0.386
     11 C2         62.5040   54.2690   17.8410 C.3       1 SUB1        0.142
     12 O2         62.6530   54.3520   19.2400 O.3       1 SUB1       -0.383
     13 C1         62.6060   55.6090   17.1060 C.3       1 SUB1        0.234
     14 N9         61.6370   55.7460   15.9500 N.ar      1 SUB1       -0.086
     15 C8         61.0760   54.8330   15.0700 C.ar      1 SUB1        0.267
     16 N7         60.2850   55.3830   14.2140 N.ar      1 SUB1       -0.040
     17 C5         60.2850   56.7130   14.4930 C.ar      1 SUB1        0.408
     18 C6         59.5860   57.8200   13.8580 C.2       1 SUB1        0.297
     19 O6         58.8240   57.7520   12.8980 O.2       1 SUB1       -0.362
     20 N1         59.8480   59.1090   14.4510 N.am      1 SUB1       -0.290
     21 N4         61.1190   56.9760   15.5750 N.ar      1 SUB1        0.047
     22 H61        66.2402   53.3488   16.1243 H         1 SUB1        0.064
     23 H62        65.2795   54.3172   14.9554 H         1 SUB1        0.064
     24 H71        65.1755   54.6544   17.9592 H         1 SUB1        0.065
     25 H91        63.2224   53.1415   16.1826 H         1 SUB1        0.065
     26 H101       64.2712   52.5691   18.7494 H         1 SUB1        0.210
     27 H111       61.5228   53.8130   17.6431 H         1 SUB1        0.068
     28 H121       62.6339   53.4780   19.6118 H         1 SUB1        0.210
     29 H131       62.4178   56.4211   17.8237 H         1 SUB1        0.103
     30 H151       61.2811   53.7690   15.0990 H         1 SUB1        0.168
     31 H201       59.4106   59.9282   14.0801 H         1 SUB1        0.182
     32 H202       60.4669   59.1832   15.2329 H         1 SUB1        0.182
@<TRIPOS>BOND
     1    1    2 2  
     2    1    3 2  
     3    1    4 2  
     4    1    5 1  
     5    5    6 1  
     6    6    7 1  
     7    7    8 1  
     8    7    9 1  
     9    8   13 1  
    10    9   10 1  
    11    9   11 1  
    12   11   12 1  
    13   11   13 1  
    14   13   14 1  
    15   14   15 ar 
    16   14   21 ar 
    17   15   16 ar 
    18   16   17 ar 
    19   17   18 1  
    20   17   21 ar 
    21   18   19 2  
    22   18   20 am 
    23    6   22 1  
    24    6   23 1  
    25    7   24 1  
    26    9   25 1  
    27   10   26 1  
    28   11   27 1  
    29   12   28 1  
    30   13   29 1  
    31   15   30 1  
    32   20   31 1  
    33   20   32 1  
@<TRIPOS>SUBSTRUCTURE
     1 SUB1        1 GROUP

