1me7_ligand
  -I-interpret- 

 32 33  0  0  0  0  0  0  0  0999 V2000
   67.9570   55.3270   15.0290 P   0  0  0  0  0
   67.6050   55.2900   13.5810 O   0  0  0  0  0
   68.7780   54.1180   15.3490 O   0  5  0  0  0
   68.7380   56.6180   15.4120 O   0  5  0  0  0
   66.7120   55.3560   16.0190 O   0  0  0  0  0
   65.7430   54.3150   15.9530 C   0  0  0  0  0
   64.6780   54.5090   16.9890 C   0  0  0  0  0
   63.9380   55.7210   16.5760 O   0  0  0  0  0
   63.5770   53.4750   17.1690 C   0  0  0  0  0
   63.9780   52.3190   17.8810 O   0  0  0  0  0
   62.5040   54.2690   17.8410 C   0  0  0  0  0
   62.6530   54.3520   19.2400 O   0  0  0  0  0
   62.6060   55.6090   17.1060 C   0  0  0  0  0
   61.6370   55.7460   15.9500 N   0  0  0  0  0
   61.0760   54.8330   15.0700 C   0  0  0  0  0
   60.2850   55.3830   14.2140 N   0  0  0  0  0
   60.2850   56.7130   14.4930 C   0  0  0  0  0
   59.5860   57.8200   13.8580 C   0  0  0  0  0
   58.8240   57.7520   12.8980 O   0  0  0  0  0
   59.8480   59.1090   14.4510 N   0  0  0  0  0
   61.1190   56.9760   15.5750 N   0  0  0  0  0
   66.2402   53.3488   16.1243 H   0  0  0  0  0
   65.2795   54.3172   14.9554 H   0  0  0  0  0
   65.1755   54.6544   17.9592 H   0  0  0  0  0
   63.2224   53.1415   16.1826 H   0  0  0  0  0
   64.2712   52.5691   18.7494 H   0  0  0  0  0
   61.5228   53.8130   17.6431 H   0  0  0  0  0
   62.6339   53.4780   19.6118 H   0  0  0  0  0
   62.4178   56.4211   17.8237 H   0  0  0  0  0
   61.2811   53.7690   15.0990 H   0  0  0  0  0
   59.4106   59.9282   14.0801 H   0  0  0  0  0
   60.4669   59.1832   15.2329 H   0  0  0  0  0
  1  2  2  0  0  0
  1  3  1  0  0  0
  1  4  1  0  0  0
  1  5  1  0  0  0
  5  6  1  0  0  0
  6  7  1  0  0  0
  7  8  1  0  0  0
  7  9  1  0  0  0
  8 13  1  0  0  0
  9 10  1  0  0  0
  9 11  1  0  0  0
 11 12  1  0  0  0
 11 13  1  0  0  0
 13 14  1  0  0  0
 14 15  4  0  0  0
 14 21  4  0  0  0
 15 16  4  0  0  0
 16 17  4  0  0  0
 17 18  1  0  0  0
 17 21  4  0  0  0
 18 19  2  0  0  0
 18 20  1  0  0  0
  6 22  1  0  0  0
  6 23  1  0  0  0
  7 24  1  0  0  0
  9 25  1  0  0  0
 10 26  1  0  0  0
 11 27  1  0  0  0
 12 28  1  0  0  0
 13 29  1  0  0  0
 15 30  1  0  0  0
 20 31  1  0  0  0
 20 32  1  0  0  0
M  END
$$$$
