### 
### Created by X-TOOL on Mon Oct 24 22:33:52 2005
### 

@<TRIPOS>MOLECULE
1k4g_ligand
   32    34     1     0     0
SMALL
GAST_HUCK


@<TRIPOS>ATOM
      1 H21        17.1077   17.1627   17.5270 H         1 SUB1        0.047
      2 C1         17.3030   17.2870   18.5860 C.ar      1 SUB1       -0.046
      3 C2         16.2560   17.0760   19.5090 C.ar      1 SUB1       -0.033
      4 C9         14.8190   16.6670   19.0990 C.3       1 SUB1        0.043
      5 C3         16.5320   17.2430   20.8840 C.ar      1 SUB1       -0.004
      6 N3         15.5600   17.0610   21.8200 N.2       1 SUB1       -0.316
      7 C8         15.7440   17.1950   23.0860 C.2       1 SUB1        0.226
      8 N2         14.7420   16.9990   23.9050 N.pl3     1 SUB1       -0.283
      9 N1         16.9300   17.5320   23.5920 N.am      1 SUB1       -0.182
     10 C7         17.9840   17.7520   22.8230 C.2       1 SUB1        0.228
     11 O1         19.0790   18.0620   23.2770 O.2       1 SUB1       -0.388
     12 C4         17.8250   17.6090   21.3180 C.ar      1 SUB1        0.039
     13 C5         18.8600   17.8140   20.3860 C.ar      1 SUB1       -0.042
     14 C6         18.5980   17.6560   19.0090 C.ar      1 SUB1        0.024
     15 N4         19.5820   17.8530   18.0990 N.pl3     1 SUB1       -0.343
     16 S1         14.6390   14.9630   18.4200 S.3       1 SUB1       -0.036
     17 C10        14.5470   15.4380   16.6960 C.2       1 SUB1        0.177
     18 N5         15.3680   16.3400   16.1280 N.2       1 SUB1       -0.329
     19 N6         13.7510   15.0380   15.8040 N.pl3     1 SUB1       -0.255
     20 C11        15.0030   16.4360   14.8490 C.2       1 SUB1       -0.036
     21 C12        13.9740   15.6440   14.5320 C.2       1 SUB1        0.026
     22 H41        14.4713   17.3752   18.3325 H         1 SUB1        0.055
     23 H42        14.1776   16.7460   19.9892 H         1 SUB1        0.055
     24 H81        13.8172   16.7379   23.5342 H         1 SUB1        0.189
     25 H82        14.8783   17.1058   24.9203 H         1 SUB1        0.189
     26 H91        17.0263   17.6213   24.5833 H         1 SUB1        0.250
     27 H131       19.8518   18.0914   20.7243 H         1 SUB1        0.047
     28 H151       19.3855   17.7364   17.0947 H         1 SUB1        0.169
     29 H152       20.5266   18.1194   18.4114 H         1 SUB1        0.169
     30 H191       13.0119   14.3417   15.9768 H         1 SUB1        0.238
     31 H201       15.4944   17.0942   14.1340 H         1 SUB1        0.041
     32 H211       13.4584   15.5030   13.5832 H         1 SUB1        0.079
@<TRIPOS>BOND
     1    2   14 ar 
     2    2    3 ar 
     3    3    5 ar 
     4    3    4 1  
     5    4   16 1  
     6   16   17 1  
     7   17   19 1  
     8   17   18 2  
     9   18   20 1  
    10   20   21 2  
    11   21   19 1  
    12    5   12 ar 
    13    5    6 1  
    14    6    7 2  
    15    7    9 am 
    16    7    8 1  
    17    9   10 am 
    18   10   12 1  
    19   10   11 2  
    20   12   13 ar 
    21   13   14 ar 
    22   14   15 1  
    23    2    1 1  
    24    4   22 1  
    25    4   23 1  
    26    8   24 1  
    27    8   25 1  
    28    9   26 1  
    29   13   27 1  
    30   15   28 1  
    31   15   29 1  
    32   19   30 1  
    33   20   31 1  
    34   21   32 1  
@<TRIPOS>SUBSTRUCTURE
     1 SUB1        1 GROUP

