1zs0_ligand
  -I-interpret- 

 46 47  0  0  0  0  0  0  0  0999 V2000
    9.3810   20.2040   12.2520 C   0  0  0  0  0
    9.8320   18.8310   12.5710 C   0  0  0  0  0
    9.1750   17.6940   11.9930 C   0  0  0  0  0
    8.0190   17.8930   11.0560 C   0  0  0  0  0
    7.5750   19.2460   10.7490 C   0  0  0  0  0
    8.2470   20.3860   11.3380 C   0  0  0  0  0
    7.3090   16.7590   10.4310 O   0  0  0  0  0
    7.9010   15.4780   10.7120 C   0  0  0  0  0
   10.0730   21.3840   12.8490 C   0  0  0  0  0
   11.5340   21.3730   13.0190 C   0  0  0  0  0
   12.2160   22.4970   13.5860 C   0  0  0  0  0
   11.4830   23.6710   13.9950 C   0  0  0  0  0
   10.0240   23.7240   13.8420 C   0  0  0  0  0
    9.3220   22.5910   13.2700 C   0  0  0  0  0
   12.3610   25.0310   14.6790 S   0  0  0  0  0
   11.7340   26.3390   14.2180 O   0  0  0  0  0
   13.8480   24.9630   14.2270 O   0  0  0  0  0
   12.2630   24.9070   16.3990 N   0  0  0  0  0
   11.2240   25.4890   17.2430 C   0  0  0  0  0
   11.8600   26.2510   18.4860 C   0  0  0  0  0
   10.8970   27.2370   19.2020 C   0  0  0  0  0
   12.9090   27.2370   18.0080 C   0  0  0  0  0
   10.1710   24.1750   17.8760 P   0  0  0  0  0
    8.5150   24.5160   17.7600 O   0  5  0  0  0
   10.3310   23.7220   19.5260 O   0  5  0  0  0
   10.2490   22.7860   17.0030 O   0  0  0  0  0
   10.6707   18.6823   13.2511 H   0  0  0  0  0
    9.5148   16.6867   12.2339 H   0  0  0  0  0
    6.7338   19.4011   10.0734 H   0  0  0  0  0
    7.9058   21.3933   11.0991 H   0  0  0  0  0
    8.9258   15.4635   10.3408 H   0  0  0  0  0
    7.9007   15.3073   11.7886 H   0  0  0  0  0
    7.3234   14.6962   10.2187 H   0  0  0  0  0
   12.1049   20.4977   12.7093 H   0  0  0  0  0
   13.2985   22.4657   13.7099 H   0  0  0  0  0
    9.4715   24.6095   14.1564 H   0  0  0  0  0
    8.2393   22.6270   13.1493 H   0  0  0  0  0
   12.9987   24.3786   16.8680 H   0  0  0  0  0
   10.6526   26.1949   16.6403 H   0  0  0  0  0
   12.1921   25.4359   19.1289 H   0  0  0  0  0
   10.5700   28.0005   18.4961 H   0  0  0  0  0
   10.0309   26.6905   19.5751 H   0  0  0  0  0
   11.4167   27.7096   20.0355 H   0  0  0  0  0
   13.6941   26.7005   17.4752 H   0  0  0  0  0
   12.4457   27.9631   17.3400 H   0  0  0  0  0
   13.3383   27.7535   18.8665 H   0  0  0  0  0
  1  2  4  0  0  0
  1  6  4  0  0  0
  1  9  1  0  0  0
  2  3  4  0  0  0
  3  4  4  0  0  0
  4  5  4  0  0  0
  4  7  1  0  0  0
  5  6  4  0  0  0
  7  8  1  0  0  0
  9 10  4  0  0  0
  9 14  4  0  0  0
 10 11  4  0  0  0
 11 12  4  0  0  0
 12 13  4  0  0  0
 12 15  1  0  0  0
 13 14  4  0  0  0
 15 16  2  0  0  0
 15 17  2  0  0  0
 15 18  1  0  0  0
 18 19  1  0  0  0
 19 20  1  0  0  0
 19 23  1  0  0  0
 20 21  1  0  0  0
 20 22  1  0  0  0
 23 24  1  0  0  0
 23 25  1  0  0  0
 23 26  2  0  0  0
  2 27  1  0  0  0
  3 28  1  0  0  0
  5 29  1  0  0  0
  6 30  1  0  0  0
  8 31  1  0  0  0
  8 32  1  0  0  0
  8 33  1  0  0  0
 10 34  1  0  0  0
 11 35  1  0  0  0
 13 36  1  0  0  0
 14 37  1  0  0  0
 18 38  1  0  0  0
 19 39  1  0  0  0
 20 40  1  0  0  0
 21 41  1  0  0  0
 21 42  1  0  0  0
 21 43  1  0  0  0
 22 44  1  0  0  0
 22 45  1  0  0  0
 22 46  1  0  0  0
M  END
$$$$
