### 
### Created by X-TOOL on Sun Jun  3 11:49:22 2007
### 

@<TRIPOS>MOLECULE
1zs0_ligand
   46    47     1     0     0
SMALL
GAST_HUCK


@<TRIPOS>ATOM
      1 C14         9.3810   20.2040   12.2520 C.ar      1 SUB1       -0.028
      2 C15         9.8320   18.8310   12.5710 C.ar      1 SUB1       -0.062
      3 C16         9.1750   17.6940   11.9930 C.ar      1 SUB1       -0.031
      4 C17         8.0190   17.8930   11.0560 C.ar      1 SUB1        0.093
      5 C1          7.5750   19.2460   10.7490 C.ar      1 SUB1       -0.031
      6 C2          8.2470   20.3860   11.3380 C.ar      1 SUB1       -0.062
      7 O1          7.3090   16.7590   10.4310 O.3       1 SUB1       -0.320
      8 C3          7.9010   15.4780   10.7120 C.3       1 SUB1        0.060
      9 C4         10.0730   21.3840   12.8490 C.ar      1 SUB1       -0.025
     10 C5         11.5340   21.3730   13.0190 C.ar      1 SUB1       -0.055
     11 C6         12.2160   22.4970   13.5860 C.ar      1 SUB1       -0.036
     12 C7         11.4830   23.6710   13.9950 C.ar      1 SUB1        0.107
     13 C8         10.0240   23.7240   13.8420 C.ar      1 SUB1       -0.036
     14 C9          9.3220   22.5910   13.2700 C.ar      1 SUB1       -0.055
     15 S1         12.3610   25.0310   14.6790 S.o2      1 SUB1        0.069
     16 O2         11.7340   26.3390   14.2180 O.2       1 SUB1       -0.150
     17 O3         13.8480   24.9630   14.2270 O.2       1 SUB1       -0.150
     18 N1         12.2630   24.9070   16.3990 N.am      1 SUB1       -0.222
     19 C10        11.2240   25.4890   17.2430 C.3       1 SUB1        0.182
     20 C11        11.8600   26.2510   18.4860 C.3       1 SUB1       -0.005
     21 C12        10.8970   27.2370   19.2020 C.3       1 SUB1       -0.059
     22 C13        12.9090   27.2370   18.0080 C.3       1 SUB1       -0.059
     23 P1         10.1710   24.1750   17.8760 P.3       1 SUB1        0.496
     24 O4          8.5150   24.5160   17.7600 O.2       1 SUB1       -0.230
     25 O5         10.3310   23.7220   19.5260 O.2       1 SUB1       -0.230
     26 O6         10.2490   22.7860   17.0030 O.2       1 SUB1       -0.230
     27 H          10.6707   18.6823   13.2511 H         1 SUB1        0.060
     28 H           9.5148   16.6867   12.2339 H         1 SUB1        0.055
     29 H           6.7338   19.4011   10.0734 H         1 SUB1        0.055
     30 H           7.9058   21.3933   11.0991 H         1 SUB1        0.060
     31 H           8.9258   15.4635   10.3408 H         1 SUB1        0.058
     32 H           7.9007   15.3073   11.7886 H         1 SUB1        0.058
     33 H           7.3234   14.6962   10.2187 H         1 SUB1        0.058
     34 H          12.1049   20.4977   12.7093 H         1 SUB1        0.061
     35 H          13.2985   22.4657   13.7099 H         1 SUB1        0.063
     36 H           9.4715   24.6095   14.1564 H         1 SUB1        0.063
     37 H           8.2393   22.6270   13.1493 H         1 SUB1        0.061
     38 H          12.9987   24.3786   16.8680 H         1 SUB1        0.169
     39 H          10.6526   26.1949   16.6403 H         1 SUB1        0.077
     40 H          12.1921   25.4359   19.1289 H         1 SUB1        0.033
     41 H          10.5700   28.0005   18.4961 H         1 SUB1        0.023
     42 H          10.0309   26.6905   19.5751 H         1 SUB1        0.023
     43 H          11.4167   27.7096   20.0355 H         1 SUB1        0.023
     44 H          13.6941   26.7005   17.4752 H         1 SUB1        0.023
     45 H          12.4457   27.9631   17.3400 H         1 SUB1        0.023
     46 H          13.3383   27.7535   18.8665 H         1 SUB1        0.023
@<TRIPOS>BOND
     1    1    2 ar 
     2    1    6 ar 
     3    1    9 1  
     4    2    3 ar 
     5    3    4 ar 
     6    4    5 ar 
     7    4    7 1  
     8    5    6 ar 
     9    7    8 1  
    10    9   10 ar 
    11    9   14 ar 
    12   10   11 ar 
    13   11   12 ar 
    14   12   13 ar 
    15   12   15 1  
    16   13   14 ar 
    17   15   16 2  
    18   15   17 2  
    19   15   18 1  
    20   18   19 1  
    21   19   20 1  
    22   19   23 1  
    23   20   21 1  
    24   20   22 1  
    25   23   24 2  
    26   23   25 2  
    27   23   26 2  
    28    2   27 1  
    29    3   28 1  
    30    5   29 1  
    31    6   30 1  
    32    8   31 1  
    33    8   32 1  
    34    8   33 1  
    35   10   34 1  
    36   11   35 1  
    37   13   36 1  
    38   14   37 1  
    39   18   38 1  
    40   19   39 1  
    41   20   40 1  
    42   21   41 1  
    43   21   42 1  
    44   21   43 1  
    45   22   44 1  
    46   22   45 1  
    47   22   46 1  
@<TRIPOS>SUBSTRUCTURE
     1 SUB1        1 GROUP

