### 
### Created by X-TOOL on Tue Oct 25 02:14:01 2005
### 

@<TRIPOS>MOLECULE
1b55_ligand
   36    36     1     0     0
SMALL
GAST_HUCK


@<TRIPOS>ATOM
      1 C1         -1.9790    4.5500   38.7310 C.3       1 SUB1        0.134
      2 O1         -3.3050    4.6200   39.4460 O.3       1 SUB1       -0.314
      3 C2         -0.8500    5.4250   39.1840 C.3       1 SUB1        0.121
      4 O2         -1.0420    6.8380   38.8990 O.3       1 SUB1       -0.386
      5 C3          0.3240    4.8690   38.4730 C.3       1 SUB1        0.138
      6 O3          1.5010    5.4200   39.0040 O.3       1 SUB1       -0.313
      7 C4          0.1820    5.0170   36.9230 C.3       1 SUB1        0.142
      8 O4          1.3610    4.5130   36.3190 O.3       1 SUB1       -0.313
      9 C5         -0.9050    4.1360   36.4760 C.3       1 SUB1        0.138
     10 O5         -1.1120    4.3720   35.0380 O.3       1 SUB1       -0.313
     11 C6         -2.1860    4.5000   37.2100 C.3       1 SUB1        0.121
     12 O6         -3.0420    3.4270   36.9930 O.3       1 SUB1       -0.386
     13 P1         -3.8130    3.6270   40.6700 P.3       1 SUB1        0.206
     14 OP1        -4.9810    4.2240   41.3230 O.co2     1 SUB1       -0.535
     15 OP2        -2.6980    3.4600   41.6390 O.co2     1 SUB1       -0.535
     16 OP3        -4.0120    2.4480   39.7660 O.co2     1 SUB1       -0.535
     17 P3          2.6050    4.5510   39.6380 P.3       1 SUB1        0.206
     18 O10         3.4630    5.5730   40.0730 O.co2     1 SUB1       -0.535
     19 O11         1.8060    3.7860   40.5730 O.co2     1 SUB1       -0.535
     20 O12         3.0900    3.7480   38.5600 O.co2     1 SUB1       -0.535
     21 P4          2.3810    5.3220   35.5530 P.3       1 SUB1        0.206
     22 OP4         1.8910    6.7140   35.6780 O.co2     1 SUB1       -0.535
     23 OP5         3.6580    5.0400   36.2540 O.co2     1 SUB1       -0.535
     24 OP6         2.2820    4.7790   34.2290 O.co2     1 SUB1       -0.535
     25 P5         -0.7220    3.4620   33.7510 P.3       1 SUB1        0.206
     26 OP7         0.3140    4.2970   33.1410 O.co2     1 SUB1       -0.535
     27 OP8        -0.3560    2.1590   34.2350 O.co2     1 SUB1       -0.535
     28 OP9        -1.9840    3.4660   33.0630 O.co2     1 SUB1       -0.535
     29 H11        -1.6123    3.5441   38.9834 H         1 SUB1        0.070
     30 H31        -0.7155    5.3165   40.2703 H         1 SUB1        0.065
     31 H41        -1.8022    7.1549   39.3724 H         1 SUB1        0.210
     32 H51         0.3547    3.7894   38.6818 H         1 SUB1        0.071
     33 H71        -0.0024    6.0638   36.6399 H         1 SUB1        0.071
     34 H91        -0.6456    3.0833   36.6618 H         1 SUB1        0.071
     35 H111       -2.5994    5.4486   36.8369 H         1 SUB1        0.065
     36 H121       -3.8700    3.5907   37.4290 H         1 SUB1        0.210
@<TRIPOS>BOND
     1    1   11 1  
     2    1    3 1  
     3    1    2 1  
     4    2   13 1  
     5   13   16 2  
     6   13   15 2  
     7   13   14 2  
     8    3    5 1  
     9    3    4 1  
    10    5    7 1  
    11    5    6 1  
    12    6   17 1  
    13   17   20 2  
    14   17   19 2  
    15   17   18 2  
    16    7    9 1  
    17    7    8 1  
    18    8   21 1  
    19   21   24 2  
    20   21   23 2  
    21   21   22 2  
    22    9   11 1  
    23    9   10 1  
    24   10   25 1  
    25   25   28 2  
    26   25   27 2  
    27   25   26 2  
    28   11   12 1  
    29    1   29 1  
    30    3   30 1  
    31    4   31 1  
    32    5   32 1  
    33    7   33 1  
    34    9   34 1  
    35   11   35 1  
    36   12   36 1  
@<TRIPOS>SUBSTRUCTURE
     1 SUB1        1 GROUP

