2bfq_ligand
  -I-interpret- 

 57 60  0  0  0  0  0  0  0  0999 V2000
  -17.0360   22.4650   -3.0910 N   0  0  0  0  0
  -17.3730   23.6940   -2.5390 C   0  0  0  0  0
  -17.8700   23.7660   -1.2860 N   0  0  0  0  0
  -18.0480   22.6270   -0.5560 C   0  0  0  0  0
  -17.7330   21.3880   -1.0610 C   0  0  0  0  0
  -17.1930   21.2810   -2.3940 C   0  0  0  0  0
  -16.8650   20.1390   -2.9290 N   0  0  0  0  0
  -18.0330   20.4760   -0.0870 N   0  0  0  0  0
  -18.4960   21.2080    0.9360 C   0  0  0  0  0
  -18.5320   22.5600    0.7100 N   0  0  0  0  0
  -18.9090   23.7480    1.4920 C   0  0  0  0  0
  -19.8950   23.4750    2.6420 C   0  0  0  0  0
  -21.2320   23.2180    2.2070 O   0  0  0  0  0
  -19.6580   24.7330    3.4660 C   0  0  0  0  0
  -20.5180   25.7920    3.0810 O   0  0  0  0  0
  -17.7690   24.2400    2.1470 O   0  0  0  0  0
  -18.1760   25.1190    3.2160 C   0  0  0  0  0
  -17.2120   24.8410    4.3610 C   0  0  0  0  0
  -17.6350   23.6340    5.0940 O   0  0  0  0  0
  -16.5640   22.7600    5.7830 P   0  0  0  0  0
  -15.9130   21.8950    4.7200 O   0  0  0  0  0
  -17.2800   21.9220    6.8630 O   0  5  0  0  0
  -15.4700   23.6450    6.4100 O   0  0  0  0  0
  -15.3710   24.4280    7.7770 P   0  0  0  0  0
  -16.7180   24.9310    8.3250 O   0  5  0  0  0
  -14.3440   25.5040    7.6190 O   0  0  0  0  0
  -14.7710   23.3110    8.6910 O   0  0  0  0  0
  -13.3660   22.9760    8.5760 C   0  0  0  0  0
  -14.0120   20.6410    8.3610 O   0  0  0  0  0
  -13.5440   18.3540    8.2770 O   0  0  0  0  0
  -13.2650   19.6370    7.6740 C   0  0  0  0  0
  -10.8080   19.0940    7.6950 O   0  0  0  0  0
  -11.8270   20.0940    7.7990 C   0  0  0  0  0
  -11.6770   20.0010   10.2650 O   0  0  0  0  0
  -11.8960   20.8270    9.1270 C   0  0  0  0  0
  -13.2210   21.5790    9.1540 C   0  0  0  0  0
  -17.2354   24.6055   -3.1207 H   0  0  0  0  0
  -16.9870   19.2748   -2.4012 H   0  0  0  0  0
  -16.4862   20.1093   -3.8756 H   0  0  0  0  0
  -18.8195   20.7622    1.8766 H   0  0  0  0  0
  -19.3638   24.4225    0.7665 H   0  0  0  0  0
  -19.7400   22.5577    3.2101 H   0  0  0  0  0
  -21.5616   23.9786    1.7229 H   0  0  0  0  0
  -19.8665   24.5495    4.5200 H   0  0  0  0  0
  -21.4311   25.5216    3.2027 H   0  0  0  0  0
  -18.1350   26.1936    3.0382 H   0  0  0  0  0
  -17.2093   25.6919    5.0422 H   0  0  0  0  0
  -16.2117   24.6836    3.9576 H   0  0  0  0  0
  -12.7438   23.6922    9.1127 H   0  0  0  0  0
  -13.0353   23.0104    7.5379 H   0  0  0  0  0
  -13.2885   18.3741    9.2022 H   0  0  0  0  0
  -13.5156   19.5112    6.6207 H   0  0  0  0  0
  -10.9300   18.4411    8.3881 H   0  0  0  0  0
  -11.4950   20.7004    6.9563 H   0  0  0  0  0
  -12.3429   19.3101   10.2904 H   0  0  0  0  0
  -11.0672   21.5314    9.1978 H   0  0  0  0  0
  -13.4763   21.8158   10.1869 H   0  0  0  0  0
  2  1  4  0  0  0
  6  1  4  0  0  0
  3  2  4  0  0  0
  4  3  4  0  0  0
  4  5  4  0  0  0
 10  4  1  0  0  0
  5  6  4  0  0  0
  8  5  1  0  0  0
  6  7  1  0  0  0
  9  8  2  0  0  0
 10  9  1  0  0  0
 11 10  1  0  0  0
 11 12  1  0  0  0
 16 11  1  0  0  0
 12 13  1  0  0  0
 14 12  1  0  0  0
 14 15  1  0  0  0
 17 14  1  0  0  0
 17 16  1  0  0  0
 18 17  1  0  0  0
 19 18  1  0  0  0
 20 19  1  0  0  0
 20 21  2  0  0  0
 20 22  1  0  0  0
 23 20  1  0  0  0
 24 23  1  0  0  0
 24 25  1  0  0  0
 24 26  2  0  0  0
 27 24  1  0  0  0
 28 27  1  0  0  0
 36 28  1  0  0  0
 29 31  1  0  0  0
 29 36  1  0  0  0
 31 30  1  0  0  0
 31 33  1  0  0  0
 33 32  1  0  0  0
 33 35  1  0  0  0
 35 34  1  0  0  0
 35 36  1  0  0  0
  2 37  1  0  0  0
  7 38  1  0  0  0
  7 39  1  0  0  0
  9 40  1  0  0  0
 11 41  1  0  0  0
 12 42  1  0  0  0
 13 43  1  0  0  0
 14 44  1  0  0  0
 15 45  1  0  0  0
 17 46  1  0  0  0
 18 47  1  0  0  0
 18 48  1  0  0  0
 28 49  1  0  0  0
 28 50  1  0  0  0
 30 51  1  0  0  0
 31 52  1  0  0  0
 32 53  1  0  0  0
 33 54  1  0  0  0
 34 55  1  0  0  0
 35 56  1  0  0  0
 36 57  1  0  0  0
M  END
$$$$
