### 
### Created by X-TOOL on Sun Jun  3 11:17:09 2007
### 

@<TRIPOS>MOLECULE
2bfq_ligand
   57    60     1     0     0
SMALL
GAST_HUCK


@<TRIPOS>ATOM
      1 N1        -17.0360   22.4650   -3.0910 N.ar      1 SUB1       -0.270
      2 C2        -17.3730   23.6940   -2.5390 C.ar      1 SUB1        0.053
      3 N3        -17.8700   23.7660   -1.2860 N.ar      1 SUB1       -0.271
      4 C4        -18.0480   22.6270   -0.5560 C.ar      1 SUB1        0.161
      5 C5        -17.7330   21.3880   -1.0610 C.ar      1 SUB1        0.105
      6 C6        -17.1930   21.2810   -2.3940 C.ar      1 SUB1        0.130
      7 N6        -16.8650   20.1390   -2.9290 N.pl3     1 SUB1       -0.315
      8 N7        -18.0330   20.4760   -0.0870 N.2       1 SUB1       -0.296
      9 C8        -18.4960   21.2080    0.9360 C.2       1 SUB1        0.112
     10 N9        -18.5320   22.5600    0.7100 N.pl3     1 SUB1       -0.192
     11 C1        -18.9090   23.7480    1.4920 C.3       1 SUB1        0.201
     12 C2        -19.8950   23.4750    2.6420 C.3       1 SUB1        0.139
     13 O2        -21.2320   23.2180    2.2070 O.3       1 SUB1       -0.384
     14 C3        -19.6580   24.7330    3.4660 C.3       1 SUB1        0.115
     15 O3        -20.5180   25.7920    3.0810 O.3       1 SUB1       -0.386
     16 O4        -17.7690   24.2400    2.1470 O.3       1 SUB1       -0.336
     17 C4        -18.1760   25.1190    3.2160 C.3       1 SUB1        0.119
     18 C5        -17.2120   24.8410    4.3610 C.3       1 SUB1        0.116
     19 O5        -17.6350   23.6340    5.0940 O.3       1 SUB1       -0.215
     20 PA        -16.5640   22.7600    5.7830 P.3       1 SUB1        0.546
     21 O1A       -15.9130   21.8950    4.7200 O.2       1 SUB1       -0.276
     22 O2A       -17.2800   21.9220    6.8630 O.2       1 SUB1       -0.276
     23 O3A       -15.4700   23.6450    6.4100 O.3       1 SUB1       -0.048
     24 PB        -15.3710   24.4280    7.7770 P.3       1 SUB1        0.546
     25 O1B       -16.7180   24.9310    8.3250 O.2       1 SUB1       -0.276
     26 O2B       -14.3440   25.5040    7.6190 O.2       1 SUB1       -0.276
     27 RO5       -14.7710   23.3110    8.6910 O.3       1 SUB1       -0.215
     28 RC5       -13.3660   22.9760    8.5760 C.3       1 SUB1        0.116
     29 RO4       -14.0120   20.6410    8.3610 O.3       1 SUB1       -0.340
     30 RO1       -13.5440   18.3540    8.2770 O.3       1 SUB1       -0.365
     31 RC1       -13.2650   19.6370    7.6740 C.3       1 SUB1        0.185
     32 RO2       -10.8080   19.0940    7.6950 O.3       1 SUB1       -0.384
     33 RC2       -11.8270   20.0940    7.7990 C.3       1 SUB1        0.134
     34 RO3       -11.6770   20.0010   10.2650 O.3       1 SUB1       -0.386
     35 RC3       -11.8960   20.8270    9.1270 C.3       1 SUB1        0.114
     36 RC4       -13.2210   21.5790    9.1540 C.3       1 SUB1        0.119
     37 H         -17.2354   24.6055   -3.1207 H         1 SUB1        0.100
     38 H         -16.9870   19.2748   -2.4012 H         1 SUB1        0.182
     39 H         -16.4862   20.1093   -3.8756 H         1 SUB1        0.182
     40 H         -18.8195   20.7622    1.8766 H         1 SUB1        0.135
     41 H         -19.3638   24.4225    0.7665 H         1 SUB1        0.100
     42 H         -19.7400   22.5577    3.2101 H         1 SUB1        0.068
     43 H         -21.5616   23.9786    1.7229 H         1 SUB1        0.210
     44 H         -19.8665   24.5495    4.5200 H         1 SUB1        0.065
     45 H         -21.4311   25.5216    3.2027 H         1 SUB1        0.210
     46 H         -18.1350   26.1936    3.0382 H         1 SUB1        0.065
     47 H         -17.2093   25.6919    5.0422 H         1 SUB1        0.065
     48 H         -16.2117   24.6836    3.9576 H         1 SUB1        0.065
     49 H         -12.7438   23.6922    9.1127 H         1 SUB1        0.065
     50 H         -13.0353   23.0104    7.5379 H         1 SUB1        0.065
     51 H         -13.2885   18.3741    9.2022 H         1 SUB1        0.213
     52 H         -13.5156   19.5112    6.6207 H         1 SUB1        0.094
     53 H         -10.9300   18.4411    8.3881 H         1 SUB1        0.210
     54 H         -11.4950   20.7004    6.9563 H         1 SUB1        0.067
     55 H         -12.3429   19.3101   10.2904 H         1 SUB1        0.210
     56 H         -11.0672   21.5314    9.1978 H         1 SUB1        0.065
     57 H         -13.4763   21.8158   10.1869 H         1 SUB1        0.065
@<TRIPOS>BOND
     1    2    1 ar 
     2    6    1 ar 
     3    3    2 ar 
     4    4    3 ar 
     5    4    5 ar 
     6   10    4 1  
     7    5    6 ar 
     8    8    5 1  
     9    6    7 1  
    10    9    8 2  
    11   10    9 1  
    12   11   10 1  
    13   11   12 1  
    14   16   11 1  
    15   12   13 1  
    16   14   12 1  
    17   14   15 1  
    18   17   14 1  
    19   17   16 1  
    20   18   17 1  
    21   19   18 1  
    22   20   19 1  
    23   20   21 2  
    24   20   22 2  
    25   23   20 1  
    26   24   23 1  
    27   24   25 2  
    28   24   26 2  
    29   27   24 1  
    30   28   27 1  
    31   36   28 1  
    32   29   31 1  
    33   29   36 1  
    34   31   30 1  
    35   31   33 1  
    36   33   32 1  
    37   33   35 1  
    38   35   34 1  
    39   35   36 1  
    40    2   37 1  
    41    7   38 1  
    42    7   39 1  
    43    9   40 1  
    44   11   41 1  
    45   12   42 1  
    46   13   43 1  
    47   14   44 1  
    48   15   45 1  
    49   17   46 1  
    50   18   47 1  
    51   18   48 1  
    52   28   49 1  
    53   28   50 1  
    54   30   51 1  
    55   31   52 1  
    56   32   53 1  
    57   33   54 1  
    58   34   55 1  
    59   35   56 1  
    60   36   57 1  
@<TRIPOS>SUBSTRUCTURE
     1 SUB1        1 GROUP

