### 
### Created by X-TOOL on Tue Oct 25 02:33:47 2005
### 

@<TRIPOS>MOLECULE
1jmg_ligand
   31    32     1     0     0
SMALL
GAST_HUCK


@<TRIPOS>ATOM
      1 N1         14.5260   46.3470  -51.8600 N.am      1 SUB1       -0.162
      2 C2         14.3340   45.0180  -51.4840 C.2       1 SUB1        0.333
      3 N3         13.3750   44.6470  -50.6000 N.am      1 SUB1       -0.186
      4 C4         12.5410   45.5310  -49.9970 C.2       1 SUB1        0.182
      5 C5         12.7810   46.9450  -50.3880 C.2       1 SUB1        0.006
      6 C6         13.7920   47.3070  -51.3240 C.2       1 SUB1        0.059
      7 O2         15.0320   44.1060  -51.8570 O.2       1 SUB1       -0.382
      8 O4         11.6890   45.0810  -49.2300 O.2       1 SUB1       -0.412
      9 C1         15.4420   46.5660  -53.0430 C.3       1 SUB1        0.180
     10 C2         14.7730   46.4380  -54.4170 C.3       1 SUB1        0.032
     11 C3         15.9640   46.5030  -55.3650 C.3       1 SUB1        0.089
     12 C4         16.8710   47.6390  -54.8440 C.3       1 SUB1        0.115
     13 O3         16.6440   45.2030  -55.2310 O.3       1 SUB1       -0.389
     14 O4         16.3720   47.7110  -53.3790 O.3       1 SUB1       -0.339
     15 C5         16.5920   48.9570  -55.5900 C.3       1 SUB1        0.094
     16 O5         16.9690   48.9830  -57.0440 O.3       1 SUB1       -0.320
     17 P          15.8090   49.3410  -58.1310 P.3       1 SUB1        0.205
     18 O1P        16.2060   49.3070  -59.5510 O.co2     1 SUB1       -0.535
     19 O2P        14.8070   48.2890  -57.8960 O.co2     1 SUB1       -0.535
     20 O3P        15.2750   50.6750  -57.8100 O.co2     1 SUB1       -0.535
     21 H31        13.2779   43.6758  -50.3822 H         1 SUB1        0.226
     22 H51        12.1658   47.7272  -49.9458 H         1 SUB1        0.026
     23 H61        13.9563   48.3497  -51.5916 H         1 SUB1        0.118
     24 H91        16.1195   45.7062  -52.9345 H         1 SUB1        0.097
     25 H101       14.0737   47.2674  -54.5985 H         1 SUB1        0.034
     26 H102       14.2394   45.4809  -54.5127 H         1 SUB1        0.034
     27 H111       15.6560   46.6871  -56.4048 H         1 SUB1        0.062
     28 H121       17.9394   47.3861  -54.9107 H         1 SUB1        0.065
     29 H131       16.0752   44.5145  -55.5549 H         1 SUB1        0.210
     30 H151       17.1524   49.7561  -55.0827 H         1 SUB1        0.064
     31 H152       15.5138   49.1627  -55.5182 H         1 SUB1        0.064
@<TRIPOS>BOND
     1    1    2 am 
     2    1    6 1  
     3    1    9 1  
     4    2    3 am 
     5    2    7 2  
     6    3    4 am 
     7    4    5 1  
     8    4    8 2  
     9    5    6 2  
    10    9   10 1  
    11    9   14 1  
    12   10   11 1  
    13   11   12 1  
    14   11   13 1  
    15   12   14 1  
    16   12   15 1  
    17   15   16 1  
    18   16   17 1  
    19   17   18 2  
    20   17   19 2  
    21   17   20 2  
    22    3   21 1  
    23    5   22 1  
    24    6   23 1  
    25    9   24 1  
    26   10   25 1  
    27   10   26 1  
    28   11   27 1  
    29   12   28 1  
    30   13   29 1  
    31   15   30 1  
    32   15   31 1  
@<TRIPOS>SUBSTRUCTURE
     1 SUB1        1 GROUP

