### 
### Created by X-TOOL on Mon Oct 24 22:40:22 2005
### 

@<TRIPOS>MOLECULE
1rpj_ligand
   24    24     1     0     0
SMALL
GAST_HUCK


@<TRIPOS>ATOM
      1 H71         5.3989    6.3763   11.0460 H         1 SUB1        0.094
      2 H81         4.6569    9.2986   10.4363 H         1 SUB1        0.067
      3 H91         4.9686    9.6278   12.8866 H         1 SUB1        0.065
      4 H101        2.6896    9.1136   12.0300 H         1 SUB1        0.065
      5 H111        3.6033    6.2462   12.5079 H         1 SUB1        0.065
      6 H121        1.2833    6.3900   13.0584 H         1 SUB1        0.058
      7 C1'         4.8590    7.1330   10.4580 C.3       1 SUB1        0.185
      8 C2'         5.1900    8.5360   11.0230 C.3       1 SUB1        0.134
      9 C3'         4.7500    8.6290   12.4810 C.3       1 SUB1        0.114
     10 C4'         3.2470    8.3340   12.5700 C.3       1 SUB1        0.112
     11 C5'         2.9950    6.9600   11.9330 C.3       1 SUB1        0.113
     12 C6'         1.5900    6.4550   12.0040 C.3       1 SUB1        0.073
     13 O1'         5.2420    7.0060    9.1070 O.3       1 SUB1       -0.365
     14 O2'         6.5850    8.7610   10.9250 O.3       1 SUB1       -0.384
     15 O3'         5.4730    7.5950   13.2340 O.3       1 SUB1       -0.386
     16 O4'         2.7870    8.2700   13.9250 O.3       1 SUB1       -0.387
     17 O5'         3.4670    6.9210   10.5920 O.3       1 SUB1       -0.341
     18 O6'         0.6840    7.3450   11.2990 O.3       1 SUB1       -0.392
     19 H122        1.5426    5.4560   11.5461 H         1 SUB1        0.058
     20 H131        5.0285    6.1329    8.7992 H         1 SUB1        0.213
     21 H141        7.0474    8.0985   11.4247 H         1 SUB1        0.210
     22 H151        6.4078    7.7469   13.1606 H         1 SUB1        0.210
     23 H161        3.2513    7.5796   14.3836 H         1 SUB1        0.210
     24 H181        0.9434    7.4015   10.3868 H         1 SUB1        0.209
@<TRIPOS>BOND
     1    7    1 1  
     2    8    2 1  
     3    9    3 1  
     4   10    4 1  
     5    7   17 1  
     6    7   13 1  
     7    8    7 1  
     8    8   14 1  
     9    9    8 1  
    10    9   15 1  
    11    9   10 1  
    12   10   16 1  
    13   10   11 1  
    14   11   17 1  
    15   11   12 1  
    16   12   18 1  
    17   11    5 1  
    18   12    6 1  
    19   12   19 1  
    20   13   20 1  
    21   14   21 1  
    22   15   22 1  
    23   16   23 1  
    24   18   24 1  
@<TRIPOS>SUBSTRUCTURE
     1 SUB1        1 GROUP

