1rpj_ligand
  -I-interpret- 

 24 24  0  0  0  0  0  0  0  0999 V2000
    5.3989    6.3763   11.0460 H   0  0  0  0  0
    4.6569    9.2986   10.4363 H   0  0  0  0  0
    4.9686    9.6278   12.8866 H   0  0  0  0  0
    2.6896    9.1136   12.0300 H   0  0  0  0  0
    3.6033    6.2462   12.5079 H   0  0  0  0  0
    1.2833    6.3900   13.0584 H   0  0  0  0  0
    4.8590    7.1330   10.4580 C   0  0  0  0  0
    5.1900    8.5360   11.0230 C   0  0  0  0  0
    4.7500    8.6290   12.4810 C   0  0  0  0  0
    3.2470    8.3340   12.5700 C   0  0  0  0  0
    2.9950    6.9600   11.9330 C   0  0  0  0  0
    1.5900    6.4550   12.0040 C   0  0  0  0  0
    5.2420    7.0060    9.1070 O   0  0  0  0  0
    6.5850    8.7610   10.9250 O   0  0  0  0  0
    5.4730    7.5950   13.2340 O   0  0  0  0  0
    2.7870    8.2700   13.9250 O   0  0  0  0  0
    3.4670    6.9210   10.5920 O   0  0  0  0  0
    0.6840    7.3450   11.2990 O   0  0  0  0  0
    1.5426    5.4560   11.5461 H   0  0  0  0  0
    5.0285    6.1329    8.7992 H   0  0  0  0  0
    7.0474    8.0985   11.4247 H   0  0  0  0  0
    6.4078    7.7469   13.1606 H   0  0  0  0  0
    3.2513    7.5796   14.3836 H   0  0  0  0  0
    0.9434    7.4015   10.3868 H   0  0  0  0  0
  7  1  1  0  0  0
  8  2  1  0  0  0
  9  3  1  0  0  0
 10  4  1  0  0  0
  7 17  1  0  0  0
  7 13  1  0  0  0
  8  7  1  0  0  0
  8 14  1  0  0  0
  9  8  1  0  0  0
  9 15  1  0  0  0
  9 10  1  0  0  0
 10 16  1  0  0  0
 10 11  1  0  0  0
 11 17  1  0  0  0
 11 12  1  0  0  0
 12 18  1  0  0  0
 11  5  1  0  0  0
 12  6  1  0  0  0
 12 19  1  0  0  0
 13 20  1  0  0  0
 14 21  1  0  0  0
 15 22  1  0  0  0
 16 23  1  0  0  0
 18 24  1  0  0  0
M  END
$$$$
