1w6y_ligand
  -I-interpret- 

 38 41  0  0  0  0  0  0  0  0999 V2000
   12.8050   59.4570    4.4450 C   0  0  0  0  0
   12.5540   58.5530    5.5280 C   0  0  0  0  0
   13.0970   58.8770    6.8430 C   0  0  0  0  0
   13.9220   60.1700    7.0510 C   0  0  0  0  0
   14.1290   61.0260    5.9010 C   0  0  0  0  0
   13.5860   60.6800    4.6340 C   0  0  0  0  0
   12.8370   57.9480    7.9530 C   0  0  0  0  0
   13.3700   58.2610    9.2750 C   0  0  0  0  0
   14.1650   59.4920    9.5120 C   0  0  0  0  0
   14.4510   60.4610    8.4010 C   0  0  0  0  0
   14.7090   59.7710   10.9210 C   0  0  0  0  0
   14.9410   61.3340   11.2420 C   0  0  0  0  0
   15.8250   61.9980   10.1200 C   0  0  0  0  0
   15.2860   61.7510    8.6470 C   0  0  0  0  0
   13.8450   59.3470   12.1570 C   0  0  0  0  0
   14.8060   59.8240   13.3080 C   0  0  0  0  0
   15.4820   61.1000   12.6590 C   0  0  0  0  0
   13.6500   62.2340   11.4270 C   0  0  0  0  0
   12.3050   59.1430    3.2840 O   0  0  0  0  0
   16.3100   61.7950   13.1970 O   0  0  0  0  0
   11.9745   57.6499    5.3741 H   0  0  0  0  0
   14.7035   61.9391    6.0077 H   0  0  0  0  0
   13.7542   61.3370    3.7884 H   0  0  0  0  0
   12.2588   57.0453    7.7918 H   0  0  0  0  0
   13.1819   57.5822   10.0989 H   0  0  0  0  0
   15.6727   59.2436   10.9777 H   0  0  0  0  0
   16.8421   61.5851   10.1905 H   0  0  0  0  0
   15.8563   63.0827   10.3001 H   0  0  0  0  0
   14.6543   62.6103    8.3777 H   0  0  0  0  0
   16.1582   61.7130    7.9778 H   0  0  0  0  0
   13.6738   58.2608   12.1869 H   0  0  0  0  0
   12.8785   59.8715   12.1835 H   0  0  0  0  0
   15.5537   59.0543   13.5500 H   0  0  0  0  0
   14.2435   60.0871   14.2159 H   0  0  0  0  0
   13.0076   61.7979   12.2062 H   0  0  0  0  0
   13.0957   62.2796   10.4780 H   0  0  0  0  0
   13.9504   63.2493   11.7253 H   0  0  0  0  0
   11.8336   58.3212    3.3552 H   0  0  0  0  0
  1  2  4  0  0  0
  1  6  4  0  0  0
  1 19  1  0  0  0
  2  3  4  0  0  0
  3  4  4  0  0  0
  3  7  4  0  0  0
  4  5  4  0  0  0
  4 10  4  0  0  0
  5  6  4  0  0  0
  7  8  4  0  0  0
  8  9  4  0  0  0
  9 10  4  0  0  0
  9 11  1  0  0  0
 10 14  1  0  0  0
 11 12  1  0  0  0
 11 15  1  0  0  0
 12 13  1  0  0  0
 12 17  1  0  0  0
 12 18  1  0  0  0
 13 14  1  0  0  0
 15 16  1  0  0  0
 16 17  1  0  0  0
 17 20  2  0  0  0
  2 21  1  0  0  0
  5 22  1  0  0  0
  6 23  1  0  0  0
  7 24  1  0  0  0
  8 25  1  0  0  0
 11 26  1  0  0  0
 13 27  1  0  0  0
 13 28  1  0  0  0
 14 29  1  0  0  0
 14 30  1  0  0  0
 15 31  1  0  0  0
 15 32  1  0  0  0
 16 33  1  0  0  0
 16 34  1  0  0  0
 18 35  1  0  0  0
 18 36  1  0  0  0
 18 37  1  0  0  0
 19 38  1  0  0  0
M  END
$$$$
