### 
### Created by X-TOOL on Tue Oct 25 00:59:41 2005
### 

@<TRIPOS>MOLECULE
1w6y_ligand
   38    41     1     0     0
SMALL
GAST_HUCK


@<TRIPOS>ATOM
      1 C1         12.8050   59.4570    4.4450 C.ar      1 SUB1        0.085
      2 C2         12.5540   58.5530    5.5280 C.ar      1 SUB1       -0.035
      3 C3         13.0970   58.8770    6.8430 C.ar      1 SUB1       -0.039
      4 C4         13.9220   60.1700    7.0510 C.ar      1 SUB1       -0.026
      5 C5         14.1290   61.0260    5.9010 C.ar      1 SUB1       -0.061
      6 C6         13.5860   60.6800    4.6340 C.ar      1 SUB1       -0.032
      7 C10        12.8370   57.9480    7.9530 C.ar      1 SUB1       -0.072
      8 C11        13.3700   58.2610    9.2750 C.ar      1 SUB1       -0.070
      9 C12        14.1650   59.4920    9.5120 C.ar      1 SUB1       -0.042
     10 C13        14.4510   60.4610    8.4010 C.ar      1 SUB1       -0.037
     11 C16        14.7090   59.7710   10.9210 C.3       1 SUB1       -0.000
     12 C17        14.9410   61.3340   11.2420 C.3       1 SUB1        0.044
     13 C18        15.8250   61.9980   10.1200 C.3       1 SUB1       -0.032
     14 C19        15.2860   61.7510    8.6470 C.3       1 SUB1       -0.022
     15 C24        13.8450   59.3470   12.1570 C.3       1 SUB1       -0.027
     16 C25        14.8060   59.8240   13.3080 C.3       1 SUB1        0.025
     17 C26        15.4820   61.1000   12.6590 C.2       1 SUB1        0.135
     18 C27        13.6500   62.2340   11.4270 C.3       1 SUB1       -0.053
     19 O1         12.3050   59.1430    3.2840 O.3       1 SUB1       -0.334
     20 O26        16.3100   61.7950   13.1970 O.2       1 SUB1       -0.332
     21 H21        11.9745   57.6499    5.3741 H         1 SUB1        0.048
     22 H51        14.7035   61.9391    6.0077 H         1 SUB1        0.060
     23 H61        13.7542   61.3370    3.7884 H         1 SUB1        0.057
     24 H71        12.2588   57.0453    7.7918 H         1 SUB1        0.051
     25 H81        13.1819   57.5822   10.0989 H         1 SUB1        0.055
     26 H111       15.6727   59.2436   10.9777 H         1 SUB1        0.043
     27 H131       16.8421   61.5851   10.1905 H         1 SUB1        0.028
     28 H132       15.8563   63.0827   10.3001 H         1 SUB1        0.028
     29 H141       14.6543   62.6103    8.3777 H         1 SUB1        0.041
     30 H142       16.1582   61.7130    7.9778 H         1 SUB1        0.041
     31 H151       13.6738   58.2608   12.1869 H         1 SUB1        0.031
     32 H152       12.8785   59.8715   12.1835 H         1 SUB1        0.031
     33 H161       15.5537   59.0543   13.5500 H         1 SUB1        0.049
     34 H162       14.2435   60.0871   14.2159 H         1 SUB1        0.049
     35 H181       13.0076   61.7979   12.2062 H         1 SUB1        0.022
     36 H182       13.0957   62.2796   10.4780 H         1 SUB1        0.022
     37 H183       13.9504   63.2493   11.7253 H         1 SUB1        0.022
     38 H191       11.8336   58.3212    3.3552 H         1 SUB1        0.248
@<TRIPOS>BOND
     1    1    2 ar 
     2    1    6 ar 
     3    1   19 1  
     4    2    3 ar 
     5    3    4 ar 
     6    3    7 ar 
     7    4    5 ar 
     8    4   10 ar 
     9    5    6 ar 
    10    7    8 ar 
    11    8    9 ar 
    12    9   10 ar 
    13    9   11 1  
    14   10   14 1  
    15   11   12 1  
    16   11   15 1  
    17   12   13 1  
    18   12   17 1  
    19   12   18 1  
    20   13   14 1  
    21   15   16 1  
    22   16   17 1  
    23   17   20 2  
    24    2   21 1  
    25    5   22 1  
    26    6   23 1  
    27    7   24 1  
    28    8   25 1  
    29   11   26 1  
    30   13   27 1  
    31   13   28 1  
    32   14   29 1  
    33   14   30 1  
    34   15   31 1  
    35   15   32 1  
    36   16   33 1  
    37   16   34 1  
    38   18   35 1  
    39   18   36 1  
    40   18   37 1  
    41   19   38 1  
@<TRIPOS>SUBSTRUCTURE
     1 SUB1        1 GROUP

