### 
### Created by X-TOOL on Mon Oct 24 22:01:47 2005
### 

@<TRIPOS>MOLECULE
1r9l_ligand
   19    18     1     0     0
SMALL
GAST_HUCK


@<TRIPOS>ATOM
      1 N          26.6760   22.9550   72.6820 N.4       1 SUB1        0.254
      2 CA         25.2290   22.9420   72.3760 C.3       1 SUB1        0.009
      3 C          24.2530   22.8310   73.5110 C.2       1 SUB1        0.073
      4 O1         23.0980   23.1860   73.3110 O.co2     1 SUB1       -0.562
      5 O2         24.6270   22.3770   74.6580 O.co2     1 SUB1       -0.562
      6 C1         27.3580   23.3720   71.4420 C.3       1 SUB1       -0.040
      7 C2         27.0140   23.9190   73.7460 C.3       1 SUB1       -0.040
      8 C3         27.0870   21.5820   73.0400 C.3       1 SUB1       -0.040
      9 H21        25.0470   22.0873   71.7079 H         1 SUB1        0.103
     10 H22        25.0021   23.8779   71.8443 H         1 SUB1        0.103
     11 H61        28.4444   23.3993   71.6125 H         1 SUB1        0.078
     12 H62        27.0075   24.3728   71.1495 H         1 SUB1        0.078
     13 H63        27.1308   22.6548   70.6395 H         1 SUB1        0.078
     14 H71        26.5137   23.6242   74.6803 H         1 SUB1        0.078
     15 H72        26.6772   24.9238   73.4510 H         1 SUB1        0.078
     16 H73        28.1031   23.9279   73.9003 H         1 SUB1        0.078
     17 H81        26.8188   20.8945   72.2242 H         1 SUB1        0.078
     18 H82        26.5732   21.2742   73.9626 H         1 SUB1        0.078
     19 H83        28.1750   21.5548   73.1996 H         1 SUB1        0.078
@<TRIPOS>BOND
     1    1    2 1  
     2    1    6 1  
     3    1    7 1  
     4    1    8 1  
     5    2    3 1  
     6    3    4 2  
     7    3    5 2  
     8    2    9 1  
     9    2   10 1  
    10    6   11 1  
    11    6   12 1  
    12    6   13 1  
    13    7   14 1  
    14    7   15 1  
    15    7   16 1  
    16    8   17 1  
    17    8   18 1  
    18    8   19 1  
@<TRIPOS>SUBSTRUCTURE
     1 SUB1        1 GROUP

