1o2j_ligand
  -I-interpret- 

 45 47  0  0  0  0  0  0  0  0999 V2000
   44.4610   -3.0870   26.2460 C   0  0  0  0  0
   44.8400   -1.7260   26.2880 C   0  0  0  0  0
   44.8030   -0.9970   27.4770 C   0  0  0  0  0
   44.3900   -1.6430   28.6030 C   0  0  0  0  0
   44.0230   -2.9290   28.6190 C   0  0  0  0  0
   44.0470   -3.6950   27.4480 C   0  0  0  0  0
   44.5060   -3.7930   25.0180 C   0  3  0  0  0
   44.2940   -5.0920   24.9750 N   0  0  0  0  0
   44.7510   -3.1160   23.9130 N   0  0  0  0  0
   44.2630   -1.2310   29.8090 N   0  0  0  0  0
   43.6650   -3.3360   29.8220 N   0  0  0  0  0
   43.8390   -2.2260   30.5160 C   0  0  0  0  0
   43.6170   -2.1050   31.8900 C   0  0  0  0  0
   43.2830   -3.2260   32.6440 C   0  0  0  0  0
   43.0740   -3.1190   34.0150 C   0  0  0  0  0
   43.1990   -1.8980   34.6380 C   0  0  0  0  0
   43.5340   -0.7690   33.9010 C   0  0  0  0  0
   43.7390   -0.8670   32.5360 C   0  0  0  0  0
   44.0500    0.2870   31.8360 O   0  0  0  0  0
   43.6980    0.4700   34.4900 O   0  0  0  0  0
   43.5500    0.7790   35.8620 C   0  0  0  0  0
   44.0610    2.2330   36.0550 C   0  0  0  0  0
   42.8710    3.0850   36.4270 C   0  0  0  0  0
   45.0200    2.2750   37.2680 C   0  0  0  0  0
   45.1700   -1.2150   25.3990 H   0  0  0  0  0
   45.0900    0.0430   27.5140 H   0  0  0  0  0
   43.7480   -4.7330   27.4730 H   0  0  0  0  0
   44.1050   -5.5810   25.8390 H   0  0  0  0  0
   44.2860   -5.6520   24.1530 H   0  0  0  0  0
   44.8670   -2.1130   23.9470 H   0  0  0  0  0
   44.8490   -3.5430   23.0190 H   0  0  0  0  0
   44.4330   -0.3340   30.1970 H   0  0  0  0  0
   43.1830   -4.1880   32.1610 H   0  0  0  0  0
   42.8130   -3.9950   34.5920 H   0  0  0  0  0
   43.0350   -1.8280   35.7030 H   0  0  0  0  0
   42.5070    0.6710   36.1180 H   0  0  0  0  0
   44.1340    0.0720   36.4340 H   0  0  0  0  0
   44.5420    2.6190   35.1680 H   0  0  0  0  0
   43.1640    4.1160   36.5580 H   0  0  0  0  0
   42.1170    3.0160   35.6590 H   0  0  0  0  0
   42.4500    2.7220   37.3570 H   0  0  0  0  0
   45.9730    1.8400   37.0030 H   0  0  0  0  0
   45.1800    3.2900   37.6040 H   0  0  0  0  0
   44.6120    1.7090   38.0930 H   0  0  0  0  0
   44.8548    0.6571   32.1793 H   0  0  0  0  0
  1  2  4  0  0  0
  1  6  4  0  0  0
  1  7  1  0  0  0
  2  3  4  0  0  0
  2 25  1  0  0  0
  3  4  4  0  0  0
  3 26  1  0  0  0
  4  5  4  0  0  0
  4 10  1  0  0  0
  5  6  4  0  0  0
  5 11  1  0  0  0
  6 27  1  0  0  0
  7  8  1  0  0  0
  7  9  1  0  0  0
  8 28  1  0  0  0
  8 29  1  0  0  0
  9 30  1  0  0  0
  9 31  1  0  0  0
 10 12  1  0  0  0
 10 32  1  0  0  0
 11 12  2  0  0  0
 12 13  1  0  0  0
 13 14  4  0  0  0
 13 18  4  0  0  0
 14 15  4  0  0  0
 14 33  1  0  0  0
 15 16  4  0  0  0
 15 34  1  0  0  0
 16 17  4  0  0  0
 16 35  1  0  0  0
 17 18  4  0  0  0
 17 20  1  0  0  0
 18 19  1  0  0  0
 20 21  1  0  0  0
 21 22  1  0  0  0
 21 36  1  0  0  0
 21 37  1  0  0  0
 22 23  1  0  0  0
 22 24  1  0  0  0
 22 38  1  0  0  0
 23 39  1  0  0  0
 23 40  1  0  0  0
 23 41  1  0  0  0
 24 42  1  0  0  0
 24 43  1  0  0  0
 24 44  1  0  0  0
 19 45  1  0  0  0
M  END
$$$$
