### 
### Created by X-TOOL on Mon Oct 24 22:27:19 2005
### 

@<TRIPOS>MOLECULE
1o2j_ligand
   45    47     1     0     0
SMALL
GAST_HUCK


@<TRIPOS>ATOM
      1 C1         44.4610   -3.0870   26.2460 C.ar      1 SUB1        0.171
      2 C2         44.8400   -1.7260   26.2880 C.ar      1 SUB1       -0.020
      3 C3         44.8030   -0.9970   27.4770 C.ar      1 SUB1       -0.036
      4 C4         44.3900   -1.6430   28.6030 C.ar      1 SUB1        0.081
      5 C5         44.0230   -2.9290   28.6190 C.ar      1 SUB1        0.034
      6 C6         44.0470   -3.6950   27.4480 C.ar      1 SUB1       -0.008
      7 C7         44.5060   -3.7930   25.0180 C.cat     1 SUB1        0.310
      8 N1         44.2940   -5.0920   24.9750 N.pl3     1 SUB1       -0.201
      9 N2         44.7510   -3.1160   23.9130 N.pl3     1 SUB1       -0.201
     10 N3         44.2630   -1.2310   29.8090 N.pl3     1 SUB1       -0.251
     11 N4         43.6650   -3.3360   29.8220 N.2       1 SUB1       -0.311
     12 C8         43.8390   -2.2260   30.5160 C.2       1 SUB1        0.133
     13 C1'        43.6170   -2.1050   31.8900 C.ar      1 SUB1        0.057
     14 C2'        43.2830   -3.2260   32.6440 C.ar      1 SUB1       -0.063
     15 C3'        43.0740   -3.1190   34.0150 C.ar      1 SUB1       -0.076
     16 C4'        43.1990   -1.8980   34.6380 C.ar      1 SUB1       -0.037
     17 C5'        43.5340   -0.7690   33.9010 C.ar      1 SUB1        0.126
     18 C6'        43.7390   -0.8670   32.5360 C.ar      1 SUB1        0.138
     19 O6'        44.0500    0.2870   31.8360 O.3       1 SUB1       -0.330
     20 O5'        43.6980    0.4700   34.4900 O.3       1 SUB1       -0.320
     21 C10        43.5500    0.7790   35.8620 C.3       1 SUB1        0.070
     22 C20        44.0610    2.2330   36.0550 C.3       1 SUB1       -0.019
     23 C30        42.8710    3.0850   36.4270 C.3       1 SUB1       -0.060
     24 C40        45.0200    2.2750   37.2680 C.3       1 SUB1       -0.060
     25 H21        45.1700   -1.2150   25.3990 H         1 SUB1        0.059
     26 H31        45.0900    0.0430   27.5140 H         1 SUB1        0.055
     27 H61        43.7480   -4.7330   27.4730 H         1 SUB1        0.059
     28 H81        44.1050   -5.5810   25.8390 H         1 SUB1        0.192
     29 H82        44.2860   -5.6520   24.1530 H         1 SUB1        0.192
     30 H91        44.8670   -2.1130   23.9470 H         1 SUB1        0.192
     31 H92        44.8490   -3.5430   23.0190 H         1 SUB1        0.192
     32 H101       44.4330   -0.3340   30.1970 H         1 SUB1        0.230
     33 H141       43.1830   -4.1880   32.1610 H         1 SUB1        0.054
     34 H151       42.8130   -3.9950   34.5920 H         1 SUB1        0.051
     35 H161       43.0350   -1.8280   35.7030 H         1 SUB1        0.054
     36 H211       42.5070    0.6710   36.1180 H         1 SUB1        0.061
     37 H212       44.1340    0.0720   36.4340 H         1 SUB1        0.061
     38 H221       44.5420    2.6190   35.1680 H         1 SUB1        0.032
     39 H231       43.1640    4.1160   36.5580 H         1 SUB1        0.023
     40 H232       42.1170    3.0160   35.6590 H         1 SUB1        0.023
     41 H233       42.4500    2.7220   37.3570 H         1 SUB1        0.023
     42 H241       45.9730    1.8400   37.0030 H         1 SUB1        0.023
     43 H242       45.1800    3.2900   37.6040 H         1 SUB1        0.023
     44 H243       44.6120    1.7090   38.0930 H         1 SUB1        0.023
     45 H191       44.8548    0.6571   32.1793 H         1 SUB1        0.248
@<TRIPOS>BOND
     1    1    2 ar 
     2    1    6 ar 
     3    1    7 1  
     4    2    3 ar 
     5    2   25 1  
     6    3    4 ar 
     7    3   26 1  
     8    4    5 ar 
     9    4   10 1  
    10    5    6 ar 
    11    5   11 1  
    12    6   27 1  
    13    7    8 1  
    14    7    9 1  
    15    8   28 1  
    16    8   29 1  
    17    9   30 1  
    18    9   31 1  
    19   10   12 1  
    20   10   32 1  
    21   11   12 2  
    22   12   13 1  
    23   13   14 ar 
    24   13   18 ar 
    25   14   15 ar 
    26   14   33 1  
    27   15   16 ar 
    28   15   34 1  
    29   16   17 ar 
    30   16   35 1  
    31   17   18 ar 
    32   17   20 1  
    33   18   19 1  
    34   20   21 1  
    35   21   22 1  
    36   21   36 1  
    37   21   37 1  
    38   22   23 1  
    39   22   24 1  
    40   22   38 1  
    41   23   39 1  
    42   23   40 1  
    43   23   41 1  
    44   24   42 1  
    45   24   43 1  
    46   24   44 1  
    47   19   45 1  
@<TRIPOS>SUBSTRUCTURE
     1 SUB1        1 GROUP

