2aj8_ligand
  -I-interpret- 

 48 51  0  0  0  0  0  0  0  0999 V2000
   -6.2400   22.0100   -0.6990 N   0  0  0  0  0
   -5.2730   22.9530   -0.4650 C   0  0  0  0  0
   -4.9740   23.2790    0.8520 N   0  0  0  0  0
   -5.6620   22.6430    1.8550 C   0  0  0  0  0
   -6.6170   21.7270    1.6780 C   0  0  0  0  0
   -6.9360   21.3690    0.2880 C   0  0  0  0  0
   -7.0880   21.3260    2.8570 N   0  0  0  0  0
   -6.4250   21.9610    3.8260 C   0  0  0  0  0
   -5.5730   22.7620    3.2880 N   0  0  0  0  0
   -6.6580   21.7630    5.1810 N   0  0  0  0  0
   -6.0860   22.8510    6.0470 C   0  0  0  0  0
   -4.6180   22.5440    6.4110 C   0  0  0  0  0
   -4.4940   21.2630    7.1640 N   0  0  0  0  0
   -5.5730   20.2600    6.9490 C   0  0  0  0  0
   -6.2070   20.3620    5.5720 C   0  0  0  0  0
   -8.2980   20.5010    3.0460 C   0  0  0  0  0
   -8.1070   18.9950    3.0790 C   0  0  0  0  0
   -9.1970   18.1820    3.4290 C   0  0  0  0  0
   -9.0400   16.7800    3.4630 C   0  0  0  0  0
   -7.7810   16.1950    3.1470 C   0  0  0  0  0
   -6.6800   17.0130    2.7940 C   0  0  0  0  0
   -6.8350   18.4130    2.7570 C   0  0  0  0  0
   -7.7850   20.5360    0.0800 O   0  0  0  0  0
   -6.5550   21.6660   -2.0930 C   0  0  0  0  0
   -4.6870   23.4910   -1.4050 O   0  0  0  0  0
   -3.9430   24.2780    1.1810 C   0  0  0  0  0
   -6.6706   22.9145    6.9648 H   0  0  0  0  0
   -6.1236   23.7930    5.4999 H   0  0  0  0  0
   -4.2441   23.3509    7.0412 H   0  0  0  0  0
   -4.0458   22.4567    5.4874 H   0  0  0  0  0
   -4.5317   21.5113    8.1526 H   0  0  0  0  0
   -6.3517   20.4440    7.6892 H   0  0  0  0  0
   -5.1294   19.2684    7.0393 H   0  0  0  0  0
   -5.4480   20.0601    4.8502 H   0  0  0  0  0
   -7.0980   19.7343    5.5858 H   0  0  0  0  0
   -8.9329   20.7017    2.1830 H   0  0  0  0  0
   -8.6934   20.7724    4.0248 H   0  0  0  0  0
  -10.1595   18.6315    3.6732 H   0  0  0  0  0
   -9.8836   16.1442    3.7315 H   0  0  0  0  0
   -7.6639   15.1117    3.1769 H   0  0  0  0  0
   -5.7177   16.5618    2.5522 H   0  0  0  0  0
   -5.9936   19.0505    2.4854 H   0  0  0  0  0
   -6.3690   20.6043   -2.2548 H   0  0  0  0  0
   -7.6036   21.8870   -2.2924 H   0  0  0  0  0
   -5.9252   22.2526   -2.7619 H   0  0  0  0  0
   -4.3955   25.0924    1.7468 H   0  0  0  0  0
   -3.1618   23.8086    1.7789 H   0  0  0  0  0
   -3.5114   24.6697    0.2599 H   0  0  0  0  0
  1  2  1  0  0  0
  1  6  1  0  0  0
  1 24  1  0  0  0
  2  3  1  0  0  0
  2 25  2  0  0  0
  3  4  1  0  0  0
  3 26  1  0  0  0
  4  5  2  0  0  0
  4  9  1  0  0  0
  5  6  1  0  0  0
  5  7  1  0  0  0
  6 23  2  0  0  0
  7  8  1  0  0  0
  7 16  1  0  0  0
  8  9  2  0  0  0
  8 10  1  0  0  0
 10 11  1  0  0  0
 10 15  1  0  0  0
 11 12  1  0  0  0
 12 13  1  0  0  0
 13 14  1  0  0  0
 14 15  1  0  0  0
 16 17  1  0  0  0
 17 18  4  0  0  0
 17 22  4  0  0  0
 18 19  4  0  0  0
 19 20  4  0  0  0
 20 21  4  0  0  0
 21 22  4  0  0  0
 11 27  1  0  0  0
 11 28  1  0  0  0
 12 29  1  0  0  0
 12 30  1  0  0  0
 13 31  1  0  0  0
 14 32  1  0  0  0
 14 33  1  0  0  0
 15 34  1  0  0  0
 15 35  1  0  0  0
 16 36  1  0  0  0
 16 37  1  0  0  0
 18 38  1  0  0  0
 19 39  1  0  0  0
 20 40  1  0  0  0
 21 41  1  0  0  0
 22 42  1  0  0  0
 24 43  1  0  0  0
 24 44  1  0  0  0
 24 45  1  0  0  0
 26 46  1  0  0  0
 26 47  1  0  0  0
 26 48  1  0  0  0
M  END
$$$$
