### 
### Created by X-TOOL on Sun Jun  3 11:50:41 2007
### 

@<TRIPOS>MOLECULE
2aj8_ligand
   48    51     1     0     0
SMALL
GAST_HUCK


@<TRIPOS>ATOM
      1 N1         -6.2400   22.0100   -0.6990 N.am      1 SUB1       -0.176
      2 C2         -5.2730   22.9530   -0.4650 C.2       1 SUB1        0.317
      3 N3         -4.9740   23.2790    0.8520 N.am      1 SUB1       -0.206
      4 C4         -5.6620   22.6430    1.8550 C.2       1 SUB1        0.116
      5 C5         -6.6170   21.7270    1.6780 C.2       1 SUB1        0.148
      6 C6         -6.9360   21.3690    0.2880 C.2       1 SUB1        0.219
      7 N7         -7.0880   21.3260    2.8570 N.pl3     1 SUB1       -0.223
      8 C8         -6.4250   21.9610    3.8260 C.2       1 SUB1        0.213
      9 N9         -5.5730   22.7620    3.2880 N.2       1 SUB1       -0.287
     10 N10        -6.6580   21.7630    5.1810 N.pl3     1 SUB1       -0.263
     11 C11        -6.0860   22.8510    6.0470 C.3       1 SUB1        0.047
     12 C12        -4.6180   22.5440    6.4110 C.3       1 SUB1        0.017
     13 N13        -4.4940   21.2630    7.1640 N.3       1 SUB1       -0.312
     14 C14        -5.5730   20.2600    6.9490 C.3       1 SUB1        0.017
     15 C15        -6.2070   20.3620    5.5720 C.3       1 SUB1        0.047
     16 C16        -8.2980   20.5010    3.0460 C.3       1 SUB1        0.086
     17 C17        -8.1070   18.9950    3.0790 C.ar      1 SUB1       -0.015
     18 C18        -9.1970   18.1820    3.4290 C.ar      1 SUB1       -0.058
     19 C19        -9.0400   16.7800    3.4630 C.ar      1 SUB1       -0.068
     20 C20        -7.7810   16.1950    3.1470 C.ar      1 SUB1       -0.069
     21 C21        -6.6800   17.0130    2.7940 C.ar      1 SUB1       -0.068
     22 C22        -6.8350   18.4130    2.7570 C.ar      1 SUB1       -0.058
     23 O23        -7.7850   20.5360    0.0800 O.2       1 SUB1       -0.408
     24 C24        -6.5550   21.6660   -2.0930 C.3       1 SUB1        0.047
     25 O25        -4.6870   23.4910   -1.4050 O.2       1 SUB1       -0.387
     26 C26        -3.9430   24.2780    1.1810 C.3       1 SUB1        0.045
     27 H          -6.6706   22.9145    6.9648 H         1 SUB1        0.054
     28 H          -6.1236   23.7930    5.4999 H         1 SUB1        0.054
     29 H          -4.2441   23.3509    7.0412 H         1 SUB1        0.044
     30 H          -4.0458   22.4567    5.4874 H         1 SUB1        0.044
     31 H          -4.5317   21.5113    8.1526 H         1 SUB1        0.122
     32 H          -6.3517   20.4440    7.6892 H         1 SUB1        0.044
     33 H          -5.1294   19.2684    7.0393 H         1 SUB1        0.044
     34 H          -5.4480   20.0601    4.8502 H         1 SUB1        0.054
     35 H          -7.0980   19.7343    5.5858 H         1 SUB1        0.054
     36 H          -8.9329   20.7017    2.1830 H         1 SUB1        0.076
     37 H          -8.6934   20.7724    4.0248 H         1 SUB1        0.076
     38 H         -10.1595   18.6315    3.6732 H         1 SUB1        0.056
     39 H          -9.8836   16.1442    3.7315 H         1 SUB1        0.060
     40 H          -7.6639   15.1117    3.1769 H         1 SUB1        0.056
     41 H          -5.7177   16.5618    2.5522 H         1 SUB1        0.060
     42 H          -5.9936   19.0505    2.4854 H         1 SUB1        0.056
     43 H          -6.3690   20.6043   -2.2548 H         1 SUB1        0.054
     44 H          -7.6036   21.8870   -2.2924 H         1 SUB1        0.054
     45 H          -5.9252   22.2526   -2.7619 H         1 SUB1        0.054
     46 H          -4.3955   25.0924    1.7468 H         1 SUB1        0.055
     47 H          -3.1618   23.8086    1.7789 H         1 SUB1        0.055
     48 H          -3.5114   24.6697    0.2599 H         1 SUB1        0.055
@<TRIPOS>BOND
     1    1    2 am 
     2    1    6 am 
     3    1   24 1  
     4    2    3 am 
     5    2   25 2  
     6    3    4 1  
     7    3   26 1  
     8    4    5 2  
     9    4    9 1  
    10    5    6 1  
    11    5    7 1  
    12    6   23 2  
    13    7    8 1  
    14    7   16 1  
    15    8    9 2  
    16    8   10 1  
    17   10   11 1  
    18   10   15 1  
    19   11   12 1  
    20   12   13 1  
    21   13   14 1  
    22   14   15 1  
    23   16   17 1  
    24   17   18 ar 
    25   17   22 ar 
    26   18   19 ar 
    27   19   20 ar 
    28   20   21 ar 
    29   21   22 ar 
    30   11   27 1  
    31   11   28 1  
    32   12   29 1  
    33   12   30 1  
    34   13   31 1  
    35   14   32 1  
    36   14   33 1  
    37   15   34 1  
    38   15   35 1  
    39   16   36 1  
    40   16   37 1  
    41   18   38 1  
    42   19   39 1  
    43   20   40 1  
    44   21   41 1  
    45   22   42 1  
    46   24   43 1  
    47   24   44 1  
    48   24   45 1  
    49   26   46 1  
    50   26   47 1  
    51   26   48 1  
@<TRIPOS>SUBSTRUCTURE
     1 SUB1        1 GROUP

