### 
### Created by X-TOOL on Tue Oct 25 01:55:05 2005
### 

@<TRIPOS>MOLECULE
2toh_ligand
   30    31     1     0     0
SMALL
GAST_HUCK


@<TRIPOS>ATOM
      1 N1         72.5310   59.7590   32.9450 N.2       1 SUB1       -0.271
      2 N2         70.4320   60.6660   33.2640 N.pl3     1 SUB1       -0.278
      3 C2         71.5640   60.2190   33.7620 C.2       1 SUB1        0.240
      4 N3         71.6400   60.2690   35.1280 N.am      1 SUB1       -0.184
      5 C4         72.7970   59.8120   35.7790 C.2       1 SUB1        0.201
      6 O4         72.9090   59.8380   37.0320 O.2       1 SUB1       -0.420
      7 C4A        73.8450   59.2980   34.9840 C.2       1 SUB1        0.075
      8 C8A        73.6640   59.3000   33.5570 C.2       1 SUB1        0.084
      9 N8         74.6400   58.8330   32.6740 N.pl3     1 SUB1       -0.296
     10 C7         75.6620   57.9310   33.2530 C.3       1 SUB1        0.083
     11 C6         75.9840   58.1460   34.7270 C.2       1 SUB1        0.051
     12 N5         75.0360   58.7800   35.5140 N.2       1 SUB1       -0.346
     13 C9         77.1620   57.4750   35.4060 C.3       1 SUB1        0.135
     14 O9         78.1810   57.2390   34.4180 O.3       1 SUB1       -0.370
     15 C10        77.8030   58.2580   36.5870 C.3       1 SUB1        0.093
     16 O10        77.0820   59.4680   36.8660 O.3       1 SUB1       -0.387
     17 C11        77.7880   57.4180   37.8630 C.3       1 SUB1       -0.034
     18 H21        70.2828   60.6677   32.2449 H         1 SUB1        0.191
     19 H22        69.6946   61.0144   33.8931 H         1 SUB1        0.191
     20 H41        70.8741   60.6298   35.6603 H         1 SUB1        0.253
     21 H91        74.6485   59.1000   31.6792 H         1 SUB1        0.186
     22 H101       76.5925   58.0660   32.6820 H         1 SUB1        0.076
     23 H102       75.3052   56.8974   33.1337 H         1 SUB1        0.076
     24 H131       76.8117   56.5093   35.7993 H         1 SUB1        0.086
     25 H141       78.9272   56.8182   34.8286 H         1 SUB1        0.214
     26 H151       78.8417   58.5054   36.3228 H         1 SUB1        0.065
     27 H161       76.1853   59.2551   37.0962 H         1 SUB1        0.210
     28 H171       78.2452   57.9900   38.6839 H         1 SUB1        0.026
     29 H172       78.3586   56.4920   37.6991 H         1 SUB1        0.026
     30 H173       76.7494   57.1673   38.1248 H         1 SUB1        0.026
@<TRIPOS>BOND
     1    1    3 2  
     2    1    8 1  
     3    3    2 1  
     4    3    4 am 
     5    4    5 am 
     6    5    6 2  
     7    5    7 1  
     8    7    8 2  
     9    7   12 1  
    10    8    9 1  
    11    9   10 1  
    12   10   11 1  
    13   11   12 2  
    14   11   13 1  
    15   13   14 1  
    16   13   15 1  
    17   15   16 1  
    18   15   17 1  
    19    2   18 1  
    20    2   19 1  
    21    4   20 1  
    22    9   21 1  
    23   10   22 1  
    24   10   23 1  
    25   13   24 1  
    26   14   25 1  
    27   15   26 1  
    28   16   27 1  
    29   17   28 1  
    30   17   29 1  
    31   17   30 1  
@<TRIPOS>SUBSTRUCTURE
     1 SUB1        1 GROUP

