2toh_ligand
  -I-interpret- 

 30 31  0  0  0  0  0  0  0  0999 V2000
   72.5310   59.7590   32.9450 N   0  0  0  0  0
   70.4320   60.6660   33.2640 N   0  0  0  0  0
   71.5640   60.2190   33.7620 C   0  0  0  0  0
   71.6400   60.2690   35.1280 N   0  0  0  0  0
   72.7970   59.8120   35.7790 C   0  0  0  0  0
   72.9090   59.8380   37.0320 O   0  0  0  0  0
   73.8450   59.2980   34.9840 C   0  0  0  0  0
   73.6640   59.3000   33.5570 C   0  0  0  0  0
   74.6400   58.8330   32.6740 N   0  0  0  0  0
   75.6620   57.9310   33.2530 C   0  0  0  0  0
   75.9840   58.1460   34.7270 C   0  0  0  0  0
   75.0360   58.7800   35.5140 N   0  0  0  0  0
   77.1620   57.4750   35.4060 C   0  0  0  0  0
   78.1810   57.2390   34.4180 O   0  0  0  0  0
   77.8030   58.2580   36.5870 C   0  0  0  0  0
   77.0820   59.4680   36.8660 O   0  0  0  0  0
   77.7880   57.4180   37.8630 C   0  0  0  0  0
   70.2828   60.6677   32.2449 H   0  0  0  0  0
   69.6946   61.0144   33.8931 H   0  0  0  0  0
   70.8741   60.6298   35.6603 H   0  0  0  0  0
   74.6485   59.1000   31.6792 H   0  0  0  0  0
   76.5925   58.0660   32.6820 H   0  0  0  0  0
   75.3052   56.8974   33.1337 H   0  0  0  0  0
   76.8117   56.5093   35.7993 H   0  0  0  0  0
   78.9272   56.8182   34.8286 H   0  0  0  0  0
   78.8417   58.5054   36.3228 H   0  0  0  0  0
   76.1853   59.2551   37.0962 H   0  0  0  0  0
   78.2452   57.9900   38.6839 H   0  0  0  0  0
   78.3586   56.4920   37.6991 H   0  0  0  0  0
   76.7494   57.1673   38.1248 H   0  0  0  0  0
  1  3  2  0  0  0
  1  8  1  0  0  0
  3  2  1  0  0  0
  3  4  1  0  0  0
  4  5  1  0  0  0
  5  6  2  0  0  0
  5  7  1  0  0  0
  7  8  2  0  0  0
  7 12  1  0  0  0
  8  9  1  0  0  0
  9 10  1  0  0  0
 10 11  1  0  0  0
 11 12  2  0  0  0
 11 13  1  0  0  0
 13 14  1  0  0  0
 13 15  1  0  0  0
 15 16  1  0  0  0
 15 17  1  0  0  0
  2 18  1  0  0  0
  2 19  1  0  0  0
  4 20  1  0  0  0
  9 21  1  0  0  0
 10 22  1  0  0  0
 10 23  1  0  0  0
 13 24  1  0  0  0
 14 25  1  0  0  0
 15 26  1  0  0  0
 16 27  1  0  0  0
 17 28  1  0  0  0
 17 29  1  0  0  0
 17 30  1  0  0  0
M  END
$$$$
