### 
### Created by X-TOOL on Mon Oct 24 23:44:33 2005
### 

@<TRIPOS>MOLECULE
1cnw_ligand
   51    51     1     0     0
SMALL
GAST_HUCK


@<TRIPOS>ATOM
      1 S          -6.0330    0.9590   17.0960 S.o2      1 SUB1        0.068
      2 O1         -5.5710    0.9590   18.4380 O.2       1 SUB1       -0.150
      3 O2         -7.4660    1.0840   17.0250 O.2       1 SUB1       -0.150
      4 N1         -5.4650   -0.1670   16.3890 N.am      1 SUB1       -0.261
      5 C1         -4.6630    4.4200   14.6230 C.ar      1 SUB1        0.050
      6 C2         -3.7550    3.3360   14.9060 C.ar      1 SUB1       -0.040
      7 C3         -4.2130    2.2520   15.6830 C.ar      1 SUB1       -0.030
      8 C4         -5.5130    2.2520   16.2480 C.ar      1 SUB1        0.112
      9 C5         -6.3610    3.3360   15.8950 C.ar      1 SUB1       -0.030
     10 C6         -5.9450    4.4200   15.1180 C.ar      1 SUB1       -0.040
     11 C7         -4.2470    5.5460   13.8460 C.2       1 SUB1        0.205
     12 O3         -4.9420    6.5050   13.5630 O.2       1 SUB1       -0.385
     13 N2         -3.0270    5.5460   13.4220 N.am      1 SUB1       -0.284
     14 C8         -2.4210    6.5890   12.5740 C.3       1 SUB1        0.054
     15 C9         -2.2030    7.9230   13.2100 C.3       1 SUB1        0.068
     16 O4         -1.1370    7.7980   14.1990 O.3       1 SUB1       -0.375
     17 C10        -1.4310    8.6740   15.3290 C.3       1 SUB1        0.071
     18 C11        -0.9970   10.0500   14.9760 C.3       1 SUB1        0.071
     19 O5         -1.5970   11.0290   15.8440 O.3       1 SUB1       -0.375
     20 C12        -1.1400   12.3040   15.4080 C.3       1 SUB1        0.068
     21 C13         0.1110   12.1830   14.6990 C.3       1 SUB1        0.054
     22 N3          0.9100   13.3750   14.9320 N.am      1 SUB1       -0.280
     23 C14         2.1780   13.2910   14.2260 C.2       1 SUB1        0.221
     24 O6          2.5250   12.2270   13.7440 O.2       1 SUB1       -0.391
     25 C15         3.0130   14.6000   14.0910 C.3       1 SUB1        0.054
     26 N4          2.1970   15.6690   14.7760 N.4       1 SUB1        0.236
     27 H41        -5.6375   -1.1054   16.7143 H         1 SUB1        0.163
     28 H61        -2.7391    3.3541   14.5284 H         1 SUB1        0.067
     29 H71        -3.5594    1.4037   15.8512 H         1 SUB1        0.065
     30 H91        -7.3860    3.3211   16.2476 H         1 SUB1        0.065
     31 H101       -6.6189    5.2432   14.9101 H         1 SUB1        0.067
     32 H131       -2.4469    4.7770   13.6904 H         1 SUB1        0.184
     33 H141       -3.0789    6.7369   11.7049 H         1 SUB1        0.054
     34 H142       -1.4430    6.2170   12.2346 H         1 SUB1        0.054
     35 H151       -3.1288    8.2545   13.7029 H         1 SUB1        0.058
     36 H152       -1.9130    8.6564   12.4431 H         1 SUB1        0.058
     37 H171       -0.8854    8.3286   16.2195 H         1 SUB1        0.058
     38 H172       -2.5115    8.6659   15.5349 H         1 SUB1        0.058
     39 H181       -1.2923   10.2632   13.9381 H         1 SUB1        0.058
     40 H182        0.0974   10.1144   15.0665 H         1 SUB1        0.058
     41 H201       -0.9974   12.9550   16.2831 H         1 SUB1        0.058
     42 H202       -1.8923   12.7479   14.7394 H         1 SUB1        0.058
     43 H211       -0.0854   12.0766   13.6219 H         1 SUB1        0.054
     44 H212        0.6554   11.2986   15.0617 H         1 SUB1        0.054
     45 H221        0.6261   14.1473   15.5003 H         1 SUB1        0.185
     46 H251        3.1648   14.8519   13.0311 H         1 SUB1        0.106
     47 H252        3.9895   14.4861   14.5844 H         1 SUB1        0.106
     48 H261        2.6853   16.5493   14.7241 H         1 SUB1        0.201
     49 H262        2.0582   15.4182   15.7424 H         1 SUB1        0.201
     50 H263        1.3025   15.7535   14.3190 H         1 SUB1        0.201
     51 H42        -4.9010   -0.0149   15.5773 H         1 SUB1        0.163
@<TRIPOS>BOND
     1    1    8 1  
     2    1    4 1  
     3    1    3 2  
     4    1    2 2  
     5    8    9 ar 
     6    8    7 ar 
     7    7    6 ar 
     8    6    5 ar 
     9    5   11 1  
    10    5   10 ar 
    11   10    9 ar 
    12   11   13 am 
    13   11   12 2  
    14   13   14 1  
    15   14   15 1  
    16   15   16 1  
    17   16   17 1  
    18   17   18 1  
    19   18   19 1  
    20   19   20 1  
    21   20   21 1  
    22   21   22 1  
    23   22   23 am 
    24   23   25 1  
    25   23   24 2  
    26   25   26 1  
    27    4   27 1  
    28    6   28 1  
    29    7   29 1  
    30    9   30 1  
    31   10   31 1  
    32   13   32 1  
    33   14   33 1  
    34   14   34 1  
    35   15   35 1  
    36   15   36 1  
    37   17   37 1  
    38   17   38 1  
    39   18   39 1  
    40   18   40 1  
    41   20   41 1  
    42   20   42 1  
    43   21   43 1  
    44   21   44 1  
    45   22   45 1  
    46   25   46 1  
    47   25   47 1  
    48   26   48 1  
    49   26   49 1  
    50   26   50 1  
    51    4   51 1  
@<TRIPOS>SUBSTRUCTURE
     1 SUB1        1 GROUP

