### 
### Created by X-TOOL on Mon Oct 24 23:18:14 2005
### 

@<TRIPOS>MOLECULE
1x8t_ligand
   35    35     1     0     0
SMALL
GAST_HUCK


@<TRIPOS>ATOM
      1 C1         55.8030   11.9350   27.8550 C.2       1 SUB1       -0.035
      2 C2         54.6220   11.1690   28.2080 C.2       1 SUB1       -0.038
      3 C3         54.7650    9.9130   29.0750 C.3       1 SUB1        0.133
      4 C4         56.1310    9.8630   29.9330 C.3       1 SUB1        0.122
      5 C5         57.3210   10.0410   28.9260 C.3       1 SUB1        0.082
      6 C6         57.1860   11.5150   28.3320 C.3       1 SUB1        0.003
      7 C7         55.6940   13.1670   27.0270 C.2       1 SUB1        0.038
      8 O1         54.6210    8.6340   28.1460 O.3       1 SUB1       -0.301
      9 O2         56.0810    8.5990   30.6110 O.3       1 SUB1       -0.383
     10 O3         58.5540    9.9620   29.5950 O.3       1 SUB1       -0.412
     11 O4         54.8180   13.2210   26.1670 O.co2     1 SUB1       -0.569
     12 O5         56.4840   14.0500   27.2860 O.co2     1 SUB1       -0.569
     13 P1         53.2190    7.7330   27.9710 P.3       1 SUB1        0.208
     14 O6         52.1840    8.6870   27.3720 O.co2     1 SUB1       -0.535
     15 O7         52.8950    7.2660   29.4410 O.co2     1 SUB1       -0.535
     16 O8         53.7400    6.6690   26.9740 O.co2     1 SUB1       -0.535
     17 C8         59.3510    8.7640   29.3120 C.3       1 SUB1        0.147
     18 C9         58.7320    7.2620   29.1790 C.3       1 SUB1       -0.058
     19 C10        60.0790    9.3710   28.0400 C.2       1 SUB1        0.163
     20 O9         60.2010   10.3930   27.2930 O.co2     1 SUB1       -0.463
     21 O10        60.7090    8.2960   27.8390 O.co2     1 SUB1       -0.463
     22 P2         60.5990    8.7680   30.6810 P.3       1 SUB1        0.062
     23 O11        59.7550    8.2620   31.8700 O.co2     1 SUB1       -0.555
     24 O12        61.1880   10.1270   30.9690 O.co2     1 SUB1       -0.555
     25 O13        61.6650    7.6970   30.3420 O.co2     1 SUB1       -0.555
     26 H21        53.6399   11.4847   27.8590 H         1 SUB1        0.062
     27 H31        53.9321    9.9088   29.7935 H         1 SUB1        0.088
     28 H41        56.1653   10.6756   30.6736 H         1 SUB1        0.068
     29 H51        57.2699    9.2845   28.1291 H         1 SUB1        0.063
     30 H61        57.4966   12.2204   29.1168 H         1 SUB1        0.042
     31 H62        57.8722   11.5936   27.4758 H         1 SUB1        0.042
     32 H91        55.9992    7.9010   29.9717 H         1 SUB1        0.210
     33 H181       57.9880    7.2425   28.3691 H         1 SUB1        0.010
     34 H182       58.2501    6.9787   30.1264 H         1 SUB1        0.010
     35 H183       59.5401    6.5512   28.9517 H         1 SUB1        0.010
@<TRIPOS>BOND
     1    1    2 2  
     2    1    6 1  
     3    1    7 1  
     4    2    3 1  
     5    3    4 1  
     6    3    8 1  
     7    4    5 1  
     8    4    9 1  
     9    5    6 1  
    10    5   10 1  
    11    7   11 2  
    12    7   12 2  
    13    8   13 1  
    14   10   17 1  
    15   13   14 2  
    16   13   15 2  
    17   13   16 2  
    18   17   18 1  
    19   17   19 1  
    20   17   22 1  
    21   19   20 2  
    22   19   21 2  
    23   22   23 2  
    24   22   24 2  
    25   22   25 2  
    26    2   26 1  
    27    3   27 1  
    28    4   28 1  
    29    5   29 1  
    30    6   30 1  
    31    6   31 1  
    32    9   32 1  
    33   18   33 1  
    34   18   34 1  
    35   18   35 1  
@<TRIPOS>SUBSTRUCTURE
     1 SUB1        1 GROUP

