### 
### Created by X-TOOL on Sun Jun  3 11:31:37 2007
### 

@<TRIPOS>MOLECULE
2ivu_ligand
   54    57     1     0     0
SMALL
GAST_HUCK


@<TRIPOS>ATOM
      1 CAK       -24.6920   15.9600  -13.5540 C.3       1 SUB1       -0.035
      2 CAM       -25.6660   17.1090  -13.8300 C.3       1 SUB1       -0.001
      3 NBD       -26.2060   17.7350  -12.5960 N.3       1 SUB1       -0.305
      4 CAB       -27.4810   18.3480  -13.0230 C.3       1 SUB1       -0.013
      5 CAN       -26.5500   16.8150  -11.4660 C.3       1 SUB1       -0.001
      6 CAL       -25.5480   15.6720  -11.2810 C.3       1 SUB1       -0.035
      7 CBC       -25.3120   14.9490  -12.6080 C.3       1 SUB1       -0.011
      8 CAO       -24.3880   13.7520  -12.4290 C.3       1 SUB1        0.074
      9 OAT       -25.2470   12.7670  -11.8870 O.3       1 SUB1       -0.313
     10 CAY       -24.7220   11.5280  -11.6550 C.ar      1 SUB1        0.133
     11 CAI       -23.5000   11.1130  -12.1550 C.ar      1 SUB1       -0.017
     12 CAX       -25.4840   10.6690  -10.8840 C.ar      1 SUB1        0.132
     13 OAS       -26.6940   11.1710  -10.4290 O.3       1 SUB1       -0.320
     14 CAA       -27.4580   10.4010   -9.4730 C.3       1 SUB1        0.058
     15 CAJ       -25.0120    9.3770  -10.6250 C.ar      1 SUB1       -0.017
     16 C5        -23.7800    8.9600  -11.1360 C.ar      1 SUB1        0.039
     17 C4        -23.0230    9.8400  -11.8940 C.ar      1 SUB1        0.027
     18 N3        -21.8330    9.4340  -12.4010 N.ar      1 SUB1       -0.305
     19 C2        -21.3730    8.2090  -12.1660 C.ar      1 SUB1        0.053
     20 N1        -22.0550    7.3510  -11.4160 N.ar      1 SUB1       -0.261
     21 C6        -23.2520    7.6690  -10.8930 C.ar      1 SUB1        0.151
     22 NAR       -23.9680    6.7080  -10.1040 N.pl3     1 SUB1       -0.247
     23 CAW       -23.3730    5.4880   -9.7110 C.ar      1 SUB1        0.105
     24 CAF       -23.9320    4.2780  -10.0880 C.ar      1 SUB1       -0.036
     25 CAE       -23.3430    3.0920   -9.6630 C.ar      1 SUB1       -0.065
     26 CAU       -22.1950    3.1520   -8.8700 C.ar      1 SUB1       -0.001
     27 BR        -21.2330    1.6390   -8.2120 Br        1 SUB1       -0.061
     28 CAH       -21.6590    4.3550   -8.5000 C.ar      1 SUB1       -0.027
     29 CAV       -22.2380    5.5040   -8.9150 C.ar      1 SUB1        0.159
     30 FAC       -21.6440    6.6220   -8.4900 F         1 SUB1       -0.189
     31 H         -23.7895   16.3647  -13.0959 H         1 SUB1        0.028
     32 H         -24.4557   15.4638  -14.4953 H         1 SUB1        0.028
     33 H         -26.5090   16.6984  -14.3857 H         1 SUB1        0.043
     34 H         -25.1200   17.8781  -14.3763 H         1 SUB1        0.043
     35 H         -28.1685   17.5661  -13.3458 H         1 SUB1        0.039
     36 H         -27.9175   18.8951  -12.1874 H         1 SUB1        0.039
     37 H         -27.2942   19.0334  -13.8497 H         1 SUB1        0.039
     38 H         -27.5184   16.3681  -11.6910 H         1 SUB1        0.043
     39 H         -26.5453   17.4058  -10.5500 H         1 SUB1        0.043
     40 H         -25.9487   14.9627  -10.5568 H         1 SUB1        0.028
     41 H         -24.6022   16.0829  -10.9278 H         1 SUB1        0.028
     42 H         -26.2521   14.5636  -13.0027 H         1 SUB1        0.033
     43 H         -23.5345   13.9688  -11.7866 H         1 SUB1        0.062
     44 H         -23.9183   13.4372  -13.3608 H         1 SUB1        0.062
     45 H         -22.9061   11.7967  -12.7615 H         1 SUB1        0.050
     46 H         -27.7087    9.4325   -9.9058 H         1 SUB1        0.058
     47 H         -26.8654   10.2544   -8.5700 H         1 SUB1        0.058
     48 H         -28.3738   10.9376   -9.2250 H         1 SUB1        0.058
     49 H         -25.6084    8.6926  -10.0217 H         1 SUB1        0.055
     50 H         -20.4193    7.9035  -12.5964 H         1 SUB1        0.102
     51 H         -24.9269    6.9097   -9.8207 H         1 SUB1        0.221
     52 H         -24.8254    4.2556  -10.7121 H         1 SUB1        0.054
     53 H         -23.7710    2.1299   -9.9446 H         1 SUB1        0.058
     54 H         -20.7681    4.3870   -7.8727 H         1 SUB1        0.060
@<TRIPOS>BOND
     1    1    2 1  
     2    1    7 1  
     3    2    3 1  
     4    3    4 1  
     5    3    5 1  
     6    5    6 1  
     7    6    7 1  
     8    7    8 1  
     9    8    9 1  
    10    9   10 1  
    11   10   11 ar 
    12   10   12 ar 
    13   11   17 ar 
    14   12   13 1  
    15   12   15 ar 
    16   13   14 1  
    17   15   16 ar 
    18   16   17 ar 
    19   16   21 ar 
    20   17   18 ar 
    21   18   19 ar 
    22   19   20 ar 
    23   20   21 ar 
    24   21   22 1  
    25   22   23 1  
    26   23   24 ar 
    27   23   29 ar 
    28   24   25 ar 
    29   25   26 ar 
    30   26   27 1  
    31   26   28 ar 
    32   28   29 ar 
    33   29   30 1  
    34    1   31 1  
    35    1   32 1  
    36    2   33 1  
    37    2   34 1  
    38    4   35 1  
    39    4   36 1  
    40    4   37 1  
    41    5   38 1  
    42    5   39 1  
    43    6   40 1  
    44    6   41 1  
    45    7   42 1  
    46    8   43 1  
    47    8   44 1  
    48   11   45 1  
    49   14   46 1  
    50   14   47 1  
    51   14   48 1  
    52   15   49 1  
    53   19   50 1  
    54   22   51 1  
    55   24   52 1  
    56   25   53 1  
    57   28   54 1  
@<TRIPOS>SUBSTRUCTURE
     1 SUB1        1 GROUP

