2ivu_ligand
  -I-interpret- 

 54 57  0  0  0  0  0  0  0  0999 V2000
  -24.6920   15.9600  -13.5540 C   0  0  0  0  0
  -25.6660   17.1090  -13.8300 C   0  0  0  0  0
  -26.2060   17.7350  -12.5960 N   0  0  0  0  0
  -27.4810   18.3480  -13.0230 C   0  0  0  0  0
  -26.5500   16.8150  -11.4660 C   0  0  0  0  0
  -25.5480   15.6720  -11.2810 C   0  0  0  0  0
  -25.3120   14.9490  -12.6080 C   0  0  0  0  0
  -24.3880   13.7520  -12.4290 C   0  0  0  0  0
  -25.2470   12.7670  -11.8870 O   0  0  0  0  0
  -24.7220   11.5280  -11.6550 C   0  0  0  0  0
  -23.5000   11.1130  -12.1550 C   0  0  0  0  0
  -25.4840   10.6690  -10.8840 C   0  0  0  0  0
  -26.6940   11.1710  -10.4290 O   0  0  0  0  0
  -27.4580   10.4010   -9.4730 C   0  0  0  0  0
  -25.0120    9.3770  -10.6250 C   0  0  0  0  0
  -23.7800    8.9600  -11.1360 C   0  0  0  0  0
  -23.0230    9.8400  -11.8940 C   0  0  0  0  0
  -21.8330    9.4340  -12.4010 N   0  0  0  0  0
  -21.3730    8.2090  -12.1660 C   0  0  0  0  0
  -22.0550    7.3510  -11.4160 N   0  0  0  0  0
  -23.2520    7.6690  -10.8930 C   0  0  0  0  0
  -23.9680    6.7080  -10.1040 N   0  0  0  0  0
  -23.3730    5.4880   -9.7110 C   0  0  0  0  0
  -23.9320    4.2780  -10.0880 C   0  0  0  0  0
  -23.3430    3.0920   -9.6630 C   0  0  0  0  0
  -22.1950    3.1520   -8.8700 C   0  0  0  0  0
  -21.2330    1.6390   -8.2120 Br  0  0  0  0  0
  -21.6590    4.3550   -8.5000 C   0  0  0  0  0
  -22.2380    5.5040   -8.9150 C   0  0  0  0  0
  -21.6440    6.6220   -8.4900 F   0  0  0  0  0
  -23.7895   16.3647  -13.0959 H   0  0  0  0  0
  -24.4557   15.4638  -14.4953 H   0  0  0  0  0
  -26.5090   16.6984  -14.3857 H   0  0  0  0  0
  -25.1200   17.8781  -14.3763 H   0  0  0  0  0
  -28.1685   17.5661  -13.3458 H   0  0  0  0  0
  -27.9175   18.8951  -12.1874 H   0  0  0  0  0
  -27.2942   19.0334  -13.8497 H   0  0  0  0  0
  -27.5184   16.3681  -11.6910 H   0  0  0  0  0
  -26.5453   17.4058  -10.5500 H   0  0  0  0  0
  -25.9487   14.9627  -10.5568 H   0  0  0  0  0
  -24.6022   16.0829  -10.9278 H   0  0  0  0  0
  -26.2521   14.5636  -13.0027 H   0  0  0  0  0
  -23.5345   13.9688  -11.7866 H   0  0  0  0  0
  -23.9183   13.4372  -13.3608 H   0  0  0  0  0
  -22.9061   11.7967  -12.7615 H   0  0  0  0  0
  -27.7087    9.4325   -9.9058 H   0  0  0  0  0
  -26.8654   10.2544   -8.5700 H   0  0  0  0  0
  -28.3738   10.9376   -9.2250 H   0  0  0  0  0
  -25.6084    8.6926  -10.0217 H   0  0  0  0  0
  -20.4193    7.9035  -12.5964 H   0  0  0  0  0
  -24.9269    6.9097   -9.8207 H   0  0  0  0  0
  -24.8254    4.2556  -10.7121 H   0  0  0  0  0
  -23.7710    2.1299   -9.9446 H   0  0  0  0  0
  -20.7681    4.3870   -7.8727 H   0  0  0  0  0
  1  2  1  0  0  0
  1  7  1  0  0  0
  2  3  1  0  0  0
  3  4  1  0  0  0
  3  5  1  0  0  0
  5  6  1  0  0  0
  6  7  1  0  0  0
  7  8  1  0  0  0
  8  9  1  0  0  0
  9 10  1  0  0  0
 10 11  4  0  0  0
 10 12  4  0  0  0
 11 17  4  0  0  0
 12 13  1  0  0  0
 12 15  4  0  0  0
 13 14  1  0  0  0
 15 16  4  0  0  0
 16 17  4  0  0  0
 16 21  4  0  0  0
 17 18  4  0  0  0
 18 19  4  0  0  0
 19 20  4  0  0  0
 20 21  4  0  0  0
 21 22  1  0  0  0
 22 23  1  0  0  0
 23 24  4  0  0  0
 23 29  4  0  0  0
 24 25  4  0  0  0
 25 26  4  0  0  0
 26 27  1  0  0  0
 26 28  4  0  0  0
 28 29  4  0  0  0
 29 30  1  0  0  0
  1 31  1  0  0  0
  1 32  1  0  0  0
  2 33  1  0  0  0
  2 34  1  0  0  0
  4 35  1  0  0  0
  4 36  1  0  0  0
  4 37  1  0  0  0
  5 38  1  0  0  0
  5 39  1  0  0  0
  6 40  1  0  0  0
  6 41  1  0  0  0
  7 42  1  0  0  0
  8 43  1  0  0  0
  8 44  1  0  0  0
 11 45  1  0  0  0
 14 46  1  0  0  0
 14 47  1  0  0  0
 14 48  1  0  0  0
 15 49  1  0  0  0
 19 50  1  0  0  0
 22 51  1  0  0  0
 24 52  1  0  0  0
 25 53  1  0  0  0
 28 54  1  0  0  0
M  END
$$$$
