1wdn_ligand
  -I-interpret- 

 20 19  0  0  0  0  0  0  0  0999 V2000
    1.8410   11.6760   14.3020 N   0  3  0  0  0
    0.7080   11.6890   15.2570 C   0  0  0  0  0
   -0.6230   11.6570   14.5280 C   0  0  0  0  0
   -1.5930   11.1090   15.0850 O   0  0  0  0  0
    0.7850   12.9500   16.1140 C   0  0  0  0  0
    1.9870   12.9610   17.0390 C   0  0  0  0  0
    1.8230   13.9530   18.1660 C   0  0  0  0  0
    1.9210   13.6140   19.3580 O   0  0  0  0  0
    1.6140   15.1940   17.7960 N   0  0  0  0  0
   -0.7439   12.1732   13.3850 O   0  5  0  0  0
    1.4863   11.6094   13.3608 H   0  0  0  0  0
    0.7795   10.8041   15.9065 H   0  0  0  0  0
   -0.1280   13.0165   16.7238 H   0  0  0  0  0
    0.8459   13.8238   15.4486 H   0  0  0  0  0
    2.8810   13.2292   16.4569 H   0  0  0  0  0
    2.1158   11.9556   17.4664 H   0  0  0  0  0
    1.5730   15.4258   16.8241 H   0  0  0  0  0
    1.4957   15.9082   18.4858 H   0  0  0  0  0
    2.4337   10.8837   14.4945 H   0  0  0  0  0
    2.3736   12.5260   14.4010 H   0  0  0  0  0
  2  3  1  0  0  0
  2  5  1  0  0  0
  2  1  1  0  0  0
  5  6  1  0  0  0
  6  7  1  0  0  0
  7  8  2  0  0  0
  7  9  1  0  0  0
  3  4  2  0  0  0
  3 10  1  0  0  0
  1 11  1  0  0  0
  2 12  1  0  0  0
  5 13  1  0  0  0
  5 14  1  0  0  0
  6 15  1  0  0  0
  6 16  1  0  0  0
  9 17  1  0  0  0
  9 18  1  0  0  0
  1 19  1  0  0  0
  1 20  1  0  0  0
M  END
$$$$
