### 
### Created by X-TOOL on Mon Oct 24 23:19:40 2005
### 

@<TRIPOS>MOLECULE
1wdn_ligand
   20    19     1     0     0
SMALL
GAST_HUCK


@<TRIPOS>ATOM
      1 N           1.8410   11.6760   14.3020 N.4       1 SUB1        0.238
      2 CA          0.7080   11.6890   15.2570 C.3       1 SUB1        0.017
      3 C          -0.6230   11.6570   14.5280 C.2       1 SUB1        0.076
      4 O          -1.5930   11.1090   15.0850 O.co2     1 SUB1       -0.561
      5 CB          0.7850   12.9500   16.1140 C.3       1 SUB1        0.018
      6 CG          1.9870   12.9610   17.0390 C.3       1 SUB1        0.045
      7 CD          1.8230   13.9530   18.1660 C.2       1 SUB1        0.174
      8 OE1         1.9210   13.6140   19.3580 O.2       1 SUB1       -0.397
      9 NE2         1.6140   15.1940   17.7960 N.am      1 SUB1       -0.301
     10 O1         -0.7439   12.1732   13.3850 O.co2     1 SUB1       -0.561
     11 H11         1.4863   11.6094   13.3608 H         1 SUB1        0.202
     12 H21         0.7795   10.8041   15.9065 H         1 SUB1        0.107
     13 H51        -0.1280   13.0165   16.7238 H         1 SUB1        0.038
     14 H52         0.8459   13.8238   15.4486 H         1 SUB1        0.038
     15 H61         2.8810   13.2292   16.4569 H         1 SUB1        0.051
     16 H62         2.1158   11.9556   17.4664 H         1 SUB1        0.051
     17 H91         1.5730   15.4258   16.8241 H         1 SUB1        0.181
     18 H92         1.4957   15.9082   18.4858 H         1 SUB1        0.181
     19 H12         2.4337   10.8837   14.4945 H         1 SUB1        0.202
     20 H13         2.3736   12.5260   14.4010 H         1 SUB1        0.202
@<TRIPOS>BOND
     1    2    3 1  
     2    2    5 1  
     3    2    1 1  
     4    5    6 1  
     5    6    7 1  
     6    7    8 2  
     7    7    9 am 
     8    3    4 2  
     9    3   10 2  
    10    1   11 1  
    11    2   12 1  
    12    5   13 1  
    13    5   14 1  
    14    6   15 1  
    15    6   16 1  
    16    9   17 1  
    17    9   18 1  
    18    1   19 1  
    19    1   20 1  
@<TRIPOS>SUBSTRUCTURE
     1 SUB1        1 GROUP

