### 
### Created by X-TOOL on Tue Oct 25 02:15:42 2005
### 

@<TRIPOS>MOLECULE
1qan_ligand
   46    48     1     0     0
SMALL
GAST_HUCK


@<TRIPOS>ATOM
      1 H91        12.5136   36.6253   23.4093 H         1 SUB1        0.202
      2 H92        11.9672   36.4217   21.8700 H         1 SUB1        0.202
      3 H93        11.1678   37.4253   22.9012 H         1 SUB1        0.202
      4 H101       12.9637   38.8800   23.0401 H         1 SUB1        0.107
      5 H111       15.0230   38.3705   22.4312 H         1 SUB1        0.036
      6 H112       14.4779   38.1594   20.7327 H         1 SUB1        0.036
      7 H121       14.1045   35.7531   21.1566 H         1 SUB1        0.038
      8 H122       14.6645   35.9683   22.8498 H         1 SUB1        0.038
      9 N          12.0740   37.0810   22.6250 N.4       1 SUB1        0.238
     10 CA         12.9000   38.1910   22.1850 C.3       1 SUB1        0.016
     11 CB         14.3410   37.8170   21.7690 C.3       1 SUB1        0.011
     12 CG         14.7660   36.3330   21.8170 C.3       1 SUB1        0.002
     13 SD         16.5060   36.0930   21.2720 S.3       1 SUB1       -0.158
     14 C          12.3300   38.9740   20.9810 C.2       1 SUB1        0.076
     15 O          12.0590   38.3160   19.9330 O.co2     1 SUB1       -0.561
     16 OXT        12.1820   40.2360   21.1140 O.co2     1 SUB1       -0.561
     17 C5'        17.3250   35.3590   22.7440 C.3       1 SUB1        0.023
     18 C4'        17.1900   36.1740   24.0520 C.3       1 SUB1        0.100
     19 O4'        17.4970   35.3820   25.2130 O.3       1 SUB1       -0.338
     20 C3'        18.0460   37.4530   24.1750 C.3       1 SUB1        0.113
     21 O3'        17.3440   38.5690   24.6940 O.3       1 SUB1       -0.386
     22 C2'        19.2330   36.9560   24.9680 C.3       1 SUB1        0.139
     23 O2'        19.8650   37.9860   25.7150 O.3       1 SUB1       -0.384
     24 C1'        18.5400   36.0040   25.9740 C.3       1 SUB1        0.201
     25 N9         19.4110   34.9330   26.5080 N.pl3     1 SUB1       -0.192
     26 C8         20.4170   34.2340   25.9390 C.2       1 SUB1        0.112
     27 N7         20.9900   33.3320   26.7510 N.2       1 SUB1       -0.296
     28 C5         20.3060   33.4260   27.9560 C.ar      1 SUB1        0.105
     29 C6         20.3540   32.8200   29.2090 C.ar      1 SUB1        0.130
     30 N6         21.2690   31.8490   29.4890 N.pl3     1 SUB1       -0.315
     31 N1         19.4820   33.1840   30.2110 N.ar      1 SUB1       -0.270
     32 C2         18.5680   34.1590   29.9730 C.ar      1 SUB1        0.053
     33 N3         18.4470   34.7980   28.7730 N.ar      1 SUB1       -0.271
     34 C4         19.3230   34.4390   27.8010 C.ar      1 SUB1        0.161
     35 H171       18.3965   35.2530   22.5190 H         1 SUB1        0.040
     36 H172       16.8864   34.3651   22.9164 H         1 SUB1        0.040
     37 H181       16.1354   36.4806   24.1125 H         1 SUB1        0.063
     38 H201       18.3952   37.7498   23.1750 H         1 SUB1        0.065
     39 H211       17.9345   39.3102   24.7605 H         1 SUB1        0.210
     40 H221       19.9643   36.4414   24.3275 H         1 SUB1        0.068
     41 H231       19.2117   38.4560   26.2198 H         1 SUB1        0.210
     42 H241       18.1280   36.5847   26.8125 H         1 SUB1        0.100
     43 H261       20.7359   34.3891   24.9093 H         1 SUB1        0.135
     44 H301       21.2882   31.4131   30.4220 H         1 SUB1        0.182
     45 H302       21.9411   31.5513   28.7675 H         1 SUB1        0.182
     46 H321       17.8999   34.4448   30.7773 H         1 SUB1        0.100
@<TRIPOS>BOND
     1    9    1 1  
     2    9    2 1  
     3    9    3 1  
     4   10    4 1  
     5   11    5 1  
     6   11    6 1  
     7   10    9 1  
     8   10   14 1  
     9   10   11 1  
    10   11   12 1  
    11   12   13 1  
    12   13   17 1  
    13   17   18 1  
    14   18   20 1  
    15   18   19 1  
    16   19   24 1  
    17   24   25 1  
    18   24   22 1  
    19   22   23 1  
    20   22   20 1  
    21   20   21 1  
    22   25   34 1  
    23   25   26 1  
    24   26   27 2  
    25   27   28 1  
    26   28   34 ar 
    27   28   29 ar 
    28   29   31 ar 
    29   29   30 1  
    30   31   32 ar 
    31   32   33 ar 
    32   33   34 ar 
    33   14   16 2  
    34   14   15 2  
    35   12    7 1  
    36   12    8 1  
    37   17   35 1  
    38   17   36 1  
    39   18   37 1  
    40   20   38 1  
    41   21   39 1  
    42   22   40 1  
    43   23   41 1  
    44   24   42 1  
    45   26   43 1  
    46   30   44 1  
    47   30   45 1  
    48   32   46 1  
@<TRIPOS>SUBSTRUCTURE
     1 SUB1        1 GROUP

