1qan_ligand
  -I-interpret- 

 46 48  0  0  0  0  0  0  0  0999 V2000
   12.5136   36.6253   23.4093 H   0  0  0  0  0
   11.9672   36.4217   21.8700 H   0  0  0  0  0
   11.1678   37.4253   22.9012 H   0  0  0  0  0
   12.9637   38.8800   23.0401 H   0  0  0  0  0
   15.0230   38.3705   22.4312 H   0  0  0  0  0
   14.4779   38.1594   20.7327 H   0  0  0  0  0
   14.1045   35.7531   21.1566 H   0  0  0  0  0
   14.6645   35.9683   22.8498 H   0  0  0  0  0
   12.0740   37.0810   22.6250 N   0  3  0  0  0
   12.9000   38.1910   22.1850 C   0  0  0  0  0
   14.3410   37.8170   21.7690 C   0  0  0  0  0
   14.7660   36.3330   21.8170 C   0  0  0  0  0
   16.5060   36.0930   21.2720 S   0  0  0  0  0
   12.3300   38.9740   20.9810 C   0  0  0  0  0
   12.0590   38.3160   19.9330 O   0  0  0  0  0
   12.1820   40.2360   21.1140 O   0  5  0  0  0
   17.3250   35.3590   22.7440 C   0  0  0  0  0
   17.1900   36.1740   24.0520 C   0  0  0  0  0
   17.4970   35.3820   25.2130 O   0  0  0  0  0
   18.0460   37.4530   24.1750 C   0  0  0  0  0
   17.3440   38.5690   24.6940 O   0  0  0  0  0
   19.2330   36.9560   24.9680 C   0  0  0  0  0
   19.8650   37.9860   25.7150 O   0  0  0  0  0
   18.5400   36.0040   25.9740 C   0  0  0  0  0
   19.4110   34.9330   26.5080 N   0  0  0  0  0
   20.4170   34.2340   25.9390 C   0  0  0  0  0
   20.9900   33.3320   26.7510 N   0  0  0  0  0
   20.3060   33.4260   27.9560 C   0  0  0  0  0
   20.3540   32.8200   29.2090 C   0  0  0  0  0
   21.2690   31.8490   29.4890 N   0  0  0  0  0
   19.4820   33.1840   30.2110 N   0  0  0  0  0
   18.5680   34.1590   29.9730 C   0  0  0  0  0
   18.4470   34.7980   28.7730 N   0  0  0  0  0
   19.3230   34.4390   27.8010 C   0  0  0  0  0
   18.3965   35.2530   22.5190 H   0  0  0  0  0
   16.8864   34.3651   22.9164 H   0  0  0  0  0
   16.1354   36.4806   24.1125 H   0  0  0  0  0
   18.3952   37.7498   23.1750 H   0  0  0  0  0
   17.9345   39.3102   24.7605 H   0  0  0  0  0
   19.9643   36.4414   24.3275 H   0  0  0  0  0
   19.2117   38.4560   26.2198 H   0  0  0  0  0
   18.1280   36.5847   26.8125 H   0  0  0  0  0
   20.7359   34.3891   24.9093 H   0  0  0  0  0
   21.2882   31.4131   30.4220 H   0  0  0  0  0
   21.9411   31.5513   28.7675 H   0  0  0  0  0
   17.8999   34.4448   30.7773 H   0  0  0  0  0
  9  1  1  0  0  0
  9  2  1  0  0  0
  9  3  1  0  0  0
 10  4  1  0  0  0
 11  5  1  0  0  0
 11  6  1  0  0  0
 10  9  1  0  0  0
 10 14  1  0  0  0
 10 11  1  0  0  0
 11 12  1  0  0  0
 12 13  1  0  0  0
 13 17  1  0  0  0
 17 18  1  0  0  0
 18 20  1  0  0  0
 18 19  1  0  0  0
 19 24  1  0  0  0
 24 25  1  0  0  0
 24 22  1  0  0  0
 22 23  1  0  0  0
 22 20  1  0  0  0
 20 21  1  0  0  0
 25 34  1  0  0  0
 25 26  1  0  0  0
 26 27  2  0  0  0
 27 28  1  0  0  0
 28 34  4  0  0  0
 28 29  4  0  0  0
 29 31  4  0  0  0
 29 30  1  0  0  0
 31 32  4  0  0  0
 32 33  4  0  0  0
 33 34  4  0  0  0
 14 16  1  0  0  0
 14 15  2  0  0  0
 12  7  1  0  0  0
 12  8  1  0  0  0
 17 35  1  0  0  0
 17 36  1  0  0  0
 18 37  1  0  0  0
 20 38  1  0  0  0
 21 39  1  0  0  0
 22 40  1  0  0  0
 23 41  1  0  0  0
 24 42  1  0  0  0
 26 43  1  0  0  0
 30 44  1  0  0  0
 30 45  1  0  0  0
 32 46  1  0  0  0
M  END
$$$$
