### 
### Created by X-TOOL on Mon Oct 24 21:52:44 2005
### 

@<TRIPOS>MOLECULE
1w3l_ligand
   63    65     1     0     0
SMALL
GAST_HUCK


@<TRIPOS>ATOM
      1 C2         57.2280   50.5890   39.1650 C.3       1 SUB1        0.134
      2 C3         56.0560   51.4800   38.7980 C.3       1 SUB1        0.114
      3 C4         56.4420   52.5320   37.7770 C.3       1 SUB1        0.112
      4 C5         57.1650   51.8770   36.6160 C.3       1 SUB1        0.113
      5 C6         57.6590   52.8670   35.5900 C.3       1 SUB1        0.073
      6 C1         57.8970   50.0560   37.9120 C.3       1 SUB1        0.188
      7 O2         56.8190   49.5010   39.9810 O.3       1 SUB1       -0.384
      8 O3         55.5610   52.0680   39.9820 O.3       1 SUB1       -0.386
      9 O4         55.2880   53.1980   37.3160 O.3       1 SUB1       -0.387
     10 O5         58.2780   51.1210   37.0700 O.3       1 SUB1       -0.340
     11 O6         58.5850   53.7430   36.1960 O.3       1 SUB1       -0.392
     12 C2         61.8010   47.7810   36.3460 C.3       1 SUB1        0.134
     13 C3         61.1670   48.7420   37.3450 C.3       1 SUB1        0.114
     14 C4         59.6650   48.5070   37.3740 C.3       1 SUB1        0.118
     15 C5         59.4320   47.0430   37.7410 C.3       1 SUB1        0.113
     16 C6         57.9890   46.6360   37.8660 C.3       1 SUB1        0.073
     17 C1         61.4160   46.3450   36.6790 C.3       1 SUB1        0.188
     18 O2         63.2090   47.8930   36.3430 O.3       1 SUB1       -0.384
     19 O3         61.4410   50.0790   36.9650 O.3       1 SUB1       -0.386
     20 O4         59.0730   49.3700   38.3380 O.3       1 SUB1       -0.340
     21 O5         60.0060   46.2230   36.7320 O.3       1 SUB1       -0.340
     22 O6         57.3350   46.8230   36.6200 O.3       1 SUB1       -0.392
     23 C6         63.7750   43.9770   37.3560 C.3       1 SUB1        0.075
     24 C5         63.1240   43.5370   36.0590 C.3       1 SUB1        0.132
     25 C4         61.7440   44.1490   35.8230 C.3       1 SUB1        0.119
     26 C3         61.1750   43.5330   34.5440 C.3       1 SUB1        0.099
     27 C2         61.1970   42.0050   34.6670 C.3       1 SUB1        0.050
     28 O6         62.9190   43.7010   38.4670 O.3       1 SUB1       -0.392
     29 O5         63.0070   42.1210   36.1800 O.3       1 SUB1       -0.291
     30 O4         61.8560   45.5440   35.6470 O.3       1 SUB1       -0.340
     31 O3         59.8120   43.8900   34.3420 O.3       1 SUB1       -0.388
     32 N1         62.5530   41.5600   34.9400 N.3       1 SUB1       -0.198
     33 H11        57.9577   51.1911   39.7262 H         1 SUB1        0.067
     34 H21        55.2651   50.8549   38.3579 H         1 SUB1        0.065
     35 H31        57.1129   53.2639   38.2505 H         1 SUB1        0.065
     36 H41        56.4554   51.1963   36.1230 H         1 SUB1        0.065
     37 H51        56.8091   53.4447   35.1976 H         1 SUB1        0.058
     38 H52        58.1483   52.3283   34.7652 H         1 SUB1        0.058
     39 H61        57.2204   49.3746   37.3754 H         1 SUB1        0.094
     40 H71        57.5788   48.9842   40.2219 H         1 SUB1        0.210
     41 H81        55.3285   51.3851   40.6002 H         1 SUB1        0.210
     42 H91        54.8434   53.6042   38.0507 H         1 SUB1        0.210
     43 H111       59.3179   53.2424   36.5346 H         1 SUB1        0.209
     44 H121       61.4264   48.0266   35.3413 H         1 SUB1        0.067
     45 H131       61.5846   48.5572   38.3457 H         1 SUB1        0.065
     46 H141       59.2325   48.7144   36.3841 H         1 SUB1        0.065
     47 H151       59.9305   46.8503   38.7024 H         1 SUB1        0.065
     48 H161       57.4991   47.2532   38.6335 H         1 SUB1        0.058
     49 H162       57.9306   45.5763   38.1553 H         1 SUB1        0.058
     50 H171       61.8659   46.0386   37.6349 H         1 SUB1        0.094
     51 H181       63.5709   47.3050   35.6905 H         1 SUB1        0.210
     52 H191       61.0432   50.6728   37.5909 H         1 SUB1        0.210
     53 H221       57.7589   46.2895   35.9579 H         1 SUB1        0.209
     54 H231       63.9736   45.0580   37.3124 H         1 SUB1        0.058
     55 H232       64.7232   43.4350   37.4868 H         1 SUB1        0.058
     56 H241       63.7744   43.7987   35.2114 H         1 SUB1        0.067
     57 H251       61.0847   43.9328   36.6766 H         1 SUB1        0.065
     58 H261       61.7789   43.8586   33.6842 H         1 SUB1        0.063
     59 H271       60.8465   41.5564   33.7258 H         1 SUB1        0.047
     60 H272       60.5365   41.6939   35.4898 H         1 SUB1        0.047
     61 H281       62.7476   42.7676   38.5091 H         1 SUB1        0.209
     62 H311       59.7420   44.8338   34.2588 H         1 SUB1        0.210
     63 H321       63.2041   41.8822   34.1408 H         1 SUB1        0.154
@<TRIPOS>BOND
     1    1    2 1  
     2    6    1 1  
     3    1    7 1  
     4    2    3 1  
     5    2    8 1  
     6    4    3 1  
     7    3    9 1  
     8    4    5 1  
     9   10    4 1  
    10    5   11 1  
    11    6   10 1  
    12   20    6 1  
    13   12   13 1  
    14   17   12 1  
    15   12   18 1  
    16   13   14 1  
    17   13   19 1  
    18   15   14 1  
    19   14   20 1  
    20   15   16 1  
    21   21   15 1  
    22   16   22 1  
    23   17   21 1  
    24   30   17 1  
    25   24   23 1  
    26   23   28 1  
    27   25   24 1  
    28   24   29 1  
    29   25   26 1  
    30   25   30 1  
    31   26   27 1  
    32   26   31 1  
    33   27   32 1  
    34   29   32 1  
    35    1   33 1  
    36    2   34 1  
    37    3   35 1  
    38    4   36 1  
    39    5   37 1  
    40    5   38 1  
    41    6   39 1  
    42    7   40 1  
    43    8   41 1  
    44    9   42 1  
    45   11   43 1  
    46   12   44 1  
    47   13   45 1  
    48   14   46 1  
    49   15   47 1  
    50   16   48 1  
    51   16   49 1  
    52   17   50 1  
    53   18   51 1  
    54   19   52 1  
    55   22   53 1  
    56   23   54 1  
    57   23   55 1  
    58   24   56 1  
    59   25   57 1  
    60   26   58 1  
    61   27   59 1  
    62   27   60 1  
    63   28   61 1  
    64   31   62 1  
    65   32   63 1  
@<TRIPOS>SUBSTRUCTURE
     1 SUB1        1 GROUP

