### 
### Created by X-TOOL on Mon Oct 24 22:39:30 2005
### 

@<TRIPOS>MOLECULE
1srg_ligand
   30    31     1     0     0
SMALL
GAST_HUCK


@<TRIPOS>ATOM
      1 H141       35.8297   11.0332   -3.4074 H         1 SUB1        0.066
      2 H151       34.0805    9.3582   -2.9110 H         1 SUB1        0.064
      3 H161       31.8804    9.4352   -4.0452 H         1 SUB1        0.065
      4 H171       31.3993   11.2504   -5.6851 H         1 SUB1        0.067
      5 H191       33.3908   15.4368   -7.5666 H         1 SUB1        0.057
      6 H221       29.0956   15.1688  -10.2207 H         1 SUB1        0.055
      7 H231       29.9880   13.0860   -8.7008 H         1 SUB1        0.059
      8 H251       33.7477   17.6222   -8.3240 H         1 SUB1        0.037
      9 H252       32.2232   18.5436   -8.5551 H         1 SUB1        0.037
     10 H253       33.1440   17.9583   -9.9821 H         1 SUB1        0.037
     11 H301       29.6000   17.2545  -10.9093 H         1 SUB1        0.249
     12 C1         33.3510   12.1830   -5.4430 C.ar      1 SUB1        0.080
     13 C2         34.5890   12.1050   -4.8280 C.ar      1 SUB1        0.032
     14 C3         34.8660   11.0850   -3.9010 C.ar      1 SUB1       -0.044
     15 C4         33.8790   10.1440   -3.6300 C.ar      1 SUB1       -0.055
     16 C5         32.6300   10.1870   -4.2640 C.ar      1 SUB1       -0.054
     17 C6         32.3580   11.2070   -5.1810 C.ar      1 SUB1       -0.032
     18 C1'        31.7400   14.1650   -8.0990 C.ar      1 SUB1        0.054
     19 C2'        32.4780   15.3510   -8.1450 C.ar      1 SUB1       -0.040
     20 C3'        32.0550   16.4220   -8.9240 C.ar      1 SUB1       -0.009
     21 C4'        30.8620   16.2980   -9.6430 C.ar      1 SUB1        0.097
     22 C5'        30.0220   15.2040   -9.6590 C.ar      1 SUB1       -0.031
     23 C6'        30.5500   14.0100   -8.7750 C.ar      1 SUB1       -0.048
     24 C          35.6590   13.1820   -5.0410 C.2       1 SUB1        0.086
     25 CM3        32.8480   17.7280   -8.9480 C.3       1 SUB1       -0.032
     26 N1         33.0450   13.2660   -6.3890 N.2       1 SUB1       -0.193
     27 N1'        32.1540   13.0140   -7.2740 N.2       1 SUB1       -0.201
     28 O          35.4960   14.1610   -5.7470 O.co2     1 SUB1       -0.535
     29 OXT        36.8220   13.0410   -4.2150 O.co2     1 SUB1       -0.535
     30 O4'        30.4180   17.4680  -10.4760 O.3       1 SUB1       -0.332
@<TRIPOS>BOND
     1   14    1 1  
     2   15    2 1  
     3   16    3 1  
     4   17    4 1  
     5   19    5 1  
     6   22    6 1  
     7   23    7 1  
     8   25    8 1  
     9   25    9 1  
    10   25   10 1  
    11   30   11 1  
    12   26   12 1  
    13   12   17 ar 
    14   12   13 ar 
    15   13   24 1  
    16   13   14 ar 
    17   14   15 ar 
    18   16   15 ar 
    19   17   16 ar 
    20   24   29 2  
    21   24   28 2  
    22   27   26 2  
    23   18   27 1  
    24   18   23 ar 
    25   19   18 ar 
    26   20   19 ar 
    27   20   25 1  
    28   21   20 ar 
    29   21   30 1  
    30   21   22 ar 
    31   22   23 ar 
@<TRIPOS>SUBSTRUCTURE
     1 SUB1        1 GROUP

