1srg_ligand
  -I-interpret- 

 30 31  0  0  0  0  0  0  0  0999 V2000
   35.8297   11.0332   -3.4074 H   0  0  0  0  0
   34.0805    9.3582   -2.9110 H   0  0  0  0  0
   31.8804    9.4352   -4.0452 H   0  0  0  0  0
   31.3993   11.2504   -5.6851 H   0  0  0  0  0
   33.3908   15.4368   -7.5666 H   0  0  0  0  0
   29.0956   15.1688  -10.2207 H   0  0  0  0  0
   29.9880   13.0860   -8.7008 H   0  0  0  0  0
   33.7477   17.6222   -8.3240 H   0  0  0  0  0
   32.2232   18.5436   -8.5551 H   0  0  0  0  0
   33.1440   17.9583   -9.9821 H   0  0  0  0  0
   29.6000   17.2545  -10.9093 H   0  0  0  0  0
   33.3510   12.1830   -5.4430 C   0  0  0  0  0
   34.5890   12.1050   -4.8280 C   0  0  0  0  0
   34.8660   11.0850   -3.9010 C   0  0  0  0  0
   33.8790   10.1440   -3.6300 C   0  0  0  0  0
   32.6300   10.1870   -4.2640 C   0  0  0  0  0
   32.3580   11.2070   -5.1810 C   0  0  0  0  0
   31.7400   14.1650   -8.0990 C   0  0  0  0  0
   32.4780   15.3510   -8.1450 C   0  0  0  0  0
   32.0550   16.4220   -8.9240 C   0  0  0  0  0
   30.8620   16.2980   -9.6430 C   0  0  0  0  0
   30.0220   15.2040   -9.6590 C   0  0  0  0  0
   30.5500   14.0100   -8.7750 C   0  0  0  0  0
   35.6590   13.1820   -5.0410 C   0  0  0  0  0
   32.8480   17.7280   -8.9480 C   0  0  0  0  0
   33.0450   13.2660   -6.3890 N   0  0  0  0  0
   32.1540   13.0140   -7.2740 N   0  0  0  0  0
   35.4960   14.1610   -5.7470 O   0  0  0  0  0
   36.8220   13.0410   -4.2150 O   0  5  0  0  0
   30.4180   17.4680  -10.4760 O   0  0  0  0  0
 14  1  1  0  0  0
 15  2  1  0  0  0
 16  3  1  0  0  0
 17  4  1  0  0  0
 19  5  1  0  0  0
 22  6  1  0  0  0
 23  7  1  0  0  0
 25  8  1  0  0  0
 25  9  1  0  0  0
 25 10  1  0  0  0
 30 11  1  0  0  0
 26 12  1  0  0  0
 12 17  4  0  0  0
 12 13  4  0  0  0
 13 24  1  0  0  0
 13 14  4  0  0  0
 14 15  4  0  0  0
 16 15  4  0  0  0
 17 16  4  0  0  0
 24 29  1  0  0  0
 24 28  2  0  0  0
 27 26  2  0  0  0
 18 27  1  0  0  0
 18 23  4  0  0  0
 19 18  4  0  0  0
 20 19  4  0  0  0
 20 25  1  0  0  0
 21 20  4  0  0  0
 21 30  1  0  0  0
 21 22  4  0  0  0
 22 23  4  0  0  0
M  END
$$$$
