### 
### Created by X-TOOL on Tue Oct 25 00:11:05 2005
### 

@<TRIPOS>MOLECULE
1w3j_ligand
   21    21     1     0     0
SMALL
GAST_HUCK


@<TRIPOS>ATOM
      1 C6         -3.1290    9.5980    8.7350 C.3       1 SUB1        0.075
      2 C5         -2.1270   10.7340    8.9770 C.3       1 SUB1        0.131
      3 C4         -0.9830   10.7330    7.9360 C.3       1 SUB1        0.112
      4 C3         -0.0710   11.9460    8.2280 C.3       1 SUB1        0.098
      5 C2          0.5250   11.8380    9.6390 C.3       1 SUB1        0.050
      6 O6         -2.5250    8.3170    8.9190 O.3       1 SUB1       -0.392
      7 O5         -1.5250   10.5350   10.2500 O.3       1 SUB1       -0.291
      8 O4         -1.4550   10.7730    6.6030 O.3       1 SUB1       -0.387
      9 O3          0.9780   12.1350    7.2910 O.3       1 SUB1       -0.388
     10 N1         -0.5220   11.5910   10.6400 N.3       1 SUB1       -0.198
     11 H11        -3.5079    9.6694    7.7048 H         1 SUB1        0.058
     12 H12        -3.9655    9.7031    9.4415 H         1 SUB1        0.058
     13 H21        -2.6543   11.6989    8.9474 H         1 SUB1        0.067
     14 H31        -0.3987    9.8095    8.0611 H         1 SUB1        0.065
     15 H41        -0.7062   12.8433    8.1926 H         1 SUB1        0.063
     16 H51         1.0408   12.7782    9.8837 H         1 SUB1        0.047
     17 H52         1.2460   11.0076    9.6615 H         1 SUB1        0.047
     18 H61        -2.1996    8.2464    9.8087 H         1 SUB1        0.209
     19 H81        -0.7163   10.7536    6.0059 H         1 SUB1        0.210
     20 H91         0.6120   12.2022    6.4169 H         1 SUB1        0.210
     21 H101       -1.0540   12.5160   10.8066 H         1 SUB1        0.154
@<TRIPOS>BOND
     1    1    2 1  
     2    1    6 1  
     3    2    3 1  
     4    2    7 1  
     5    3    4 1  
     6    3    8 1  
     7    4    5 1  
     8    4    9 1  
     9    5   10 1  
    10    7   10 1  
    11    1   11 1  
    12    1   12 1  
    13    2   13 1  
    14    3   14 1  
    15    4   15 1  
    16    5   16 1  
    17    5   17 1  
    18    6   18 1  
    19    8   19 1  
    20    9   20 1  
    21   10   21 1  
@<TRIPOS>SUBSTRUCTURE
     1 SUB1        1 GROUP

