1w3j_ligand
  -I-interpret- 

 21 21  0  0  0  0  0  0  0  0999 V2000
   -3.1290    9.5980    8.7350 C   0  0  0  0  0
   -2.1270   10.7340    8.9770 C   0  0  0  0  0
   -0.9830   10.7330    7.9360 C   0  0  0  0  0
   -0.0710   11.9460    8.2280 C   0  0  0  0  0
    0.5250   11.8380    9.6390 C   0  0  0  0  0
   -2.5250    8.3170    8.9190 O   0  0  0  0  0
   -1.5250   10.5350   10.2500 O   0  0  0  0  0
   -1.4550   10.7730    6.6030 O   0  0  0  0  0
    0.9780   12.1350    7.2910 O   0  0  0  0  0
   -0.5220   11.5910   10.6400 N   0  0  0  0  0
   -3.5079    9.6694    7.7048 H   0  0  0  0  0
   -3.9655    9.7031    9.4415 H   0  0  0  0  0
   -2.6543   11.6989    8.9474 H   0  0  0  0  0
   -0.3987    9.8095    8.0611 H   0  0  0  0  0
   -0.7062   12.8433    8.1926 H   0  0  0  0  0
    1.0408   12.7782    9.8837 H   0  0  0  0  0
    1.2460   11.0076    9.6615 H   0  0  0  0  0
   -2.1996    8.2464    9.8087 H   0  0  0  0  0
   -0.7163   10.7536    6.0059 H   0  0  0  0  0
    0.6120   12.2022    6.4169 H   0  0  0  0  0
   -1.0540   12.5160   10.8066 H   0  0  0  0  0
  1  2  1  0  0  0
  1  6  1  0  0  0
  2  3  1  0  0  0
  2  7  1  0  0  0
  3  4  1  0  0  0
  3  8  1  0  0  0
  4  5  1  0  0  0
  4  9  1  0  0  0
  5 10  1  0  0  0
  7 10  1  0  0  0
  1 11  1  0  0  0
  1 12  1  0  0  0
  2 13  1  0  0  0
  3 14  1  0  0  0
  4 15  1  0  0  0
  5 16  1  0  0  0
  5 17  1  0  0  0
  6 18  1  0  0  0
  8 19  1  0  0  0
  9 20  1  0  0  0
 10 21  1  0  0  0
M  END
$$$$
