1m2x_ligand
  -I-interpret- 

 28 28  0  0  0  0  0  0  0  0999 V2000
  -29.4130   35.1480    7.0740 O   0  5  0  0  0
  -28.2570   35.5820    7.2860 C   0  0  0  0  0
  -27.2680   35.4070    6.5480 O   0  0  0  0  0
  -28.0410   36.4090    8.5740 C   0  0  0  0  0
  -28.7630   35.7520    9.7520 C   0  0  0  0  0
  -27.7810   34.6970   10.2750 C   0  0  0  0  0
  -26.3940   35.3130   10.0650 C   0  0  0  0  0
  -26.6250   36.3060    8.9900 N   0  0  0  0  0
  -25.6540   37.1220    8.5260 C   0  0  0  0  0
  -25.9280   37.9910    7.6970 O   0  0  0  0  0
  -24.2130   36.9500    9.0220 C   0  0  0  0  0
  -23.9890   37.8620   10.2340 C   0  0  0  0  0
  -23.2280   37.2870    7.9000 C   0  0  0  0  0
  -21.5140   36.8160    8.3230 S   0  0  0  0  0
  -28.3439   37.4560    8.4260 H   0  0  0  0  0
  -28.9804   36.4879   10.5401 H   0  0  0  0  0
  -29.6947   35.2691    9.4225 H   0  0  0  0  0
  -27.9478   34.5003   11.3443 H   0  0  0  0  0
  -27.8680   33.7612    9.7035 H   0  0  0  0  0
  -26.0348   35.8113   10.9775 H   0  0  0  0  0
  -25.6650   34.5565    9.7390 H   0  0  0  0  0
  -24.0483   35.9033    9.3172 H   0  0  0  0  0
  -22.9553   37.7381   10.5892 H   0  0  0  0  0
  -24.1457   38.9123    9.9472 H   0  0  0  0  0
  -24.6812   37.5870   11.0434 H   0  0  0  0  0
  -23.5189   36.7435    6.9890 H   0  0  0  0  0
  -23.2505   38.3708    7.7134 H   0  0  0  0  0
  -20.9025   37.0556    7.5583 H   0  0  0  0  0
  1  2  1  0  0  0
  2  3  2  0  0  0
  2  4  1  0  0  0
  4  5  1  0  0  0
  4  8  1  0  0  0
  5  6  1  0  0  0
  6  7  1  0  0  0
  7  8  1  0  0  0
  8  9  1  0  0  0
  9 10  2  0  0  0
  9 11  1  0  0  0
 11 12  1  0  0  0
 11 13  1  0  0  0
 13 14  1  0  0  0
  4 15  1  0  0  0
  5 16  1  0  0  0
  5 17  1  0  0  0
  6 18  1  0  0  0
  6 19  1  0  0  0
  7 20  1  0  0  0
  7 21  1  0  0  0
 11 22  1  0  0  0
 12 23  1  0  0  0
 12 24  1  0  0  0
 12 25  1  0  0  0
 13 26  1  0  0  0
 13 27  1  0  0  0
 14 28  1  0  0  0
M  END
$$$$
