### 
### Created by X-TOOL on Mon Oct 24 22:00:46 2005
### 

@<TRIPOS>MOLECULE
1m2x_ligand
   28    28     1     0     0
SMALL
GAST_HUCK


@<TRIPOS>ATOM
      1 O2        -29.4130   35.1480    7.0740 O.co2     1 SUB1       -0.564
      2 C9        -28.2570   35.5820    7.2860 C.2       1 SUB1        0.053
      3 O3        -27.2680   35.4070    6.5480 O.co2     1 SUB1       -0.564
      4 C8        -28.0410   36.4090    8.5740 C.3       1 SUB1        0.084
      5 C7        -28.7630   35.7520    9.7520 C.3       1 SUB1       -0.016
      6 C6        -27.7810   34.6970   10.2750 C.3       1 SUB1       -0.027
      7 C5        -26.3940   35.3130   10.0650 C.3       1 SUB1        0.038
      8 N         -26.6250   36.3060    8.9900 N.am      1 SUB1       -0.256
      9 C4        -25.6540   37.1220    8.5260 C.2       1 SUB1        0.185
     10 O1        -25.9280   37.9910    7.6970 O.2       1 SUB1       -0.396
     11 C2        -24.2130   36.9500    9.0220 C.3       1 SUB1        0.055
     12 C3        -23.9890   37.8620   10.2340 C.3       1 SUB1       -0.045
     13 C1        -23.2280   37.2870    7.9000 C.3       1 SUB1        0.010
     14 S         -21.5140   36.8160    8.3230 S.3       1 SUB1       -0.176
     15 H41       -28.3439   37.4560    8.4260 H         1 SUB1        0.078
     16 H51       -28.9804   36.4879   10.5401 H         1 SUB1        0.032
     17 H52       -29.6947   35.2691    9.4225 H         1 SUB1        0.032
     18 H61       -27.9478   34.5003   11.3443 H         1 SUB1        0.029
     19 H62       -27.8680   33.7612    9.7035 H         1 SUB1        0.029
     20 H71       -26.0348   35.8113   10.9775 H         1 SUB1        0.053
     21 H72       -25.6650   34.5565    9.7390 H         1 SUB1        0.053
     22 H111      -24.0483   35.9033    9.3172 H         1 SUB1        0.054
     23 H121      -22.9553   37.7381   10.5892 H         1 SUB1        0.026
     24 H122      -24.1457   38.9123    9.9472 H         1 SUB1        0.026
     25 H123      -24.6812   37.5870   11.0434 H         1 SUB1        0.026
     26 H131      -23.5189   36.7435    6.9890 H         1 SUB1        0.040
     27 H132      -23.2505   38.3708    7.7134 H         1 SUB1        0.040
     28 H141      -20.9025   37.0556    7.5583 H         1 SUB1        0.102
@<TRIPOS>BOND
     1    1    2 2  
     2    2    3 2  
     3    2    4 1  
     4    4    5 1  
     5    4    8 1  
     6    5    6 1  
     7    6    7 1  
     8    7    8 1  
     9    8    9 am 
    10    9   10 2  
    11    9   11 1  
    12   11   12 1  
    13   11   13 1  
    14   13   14 1  
    15    4   15 1  
    16    5   16 1  
    17    5   17 1  
    18    6   18 1  
    19    6   19 1  
    20    7   20 1  
    21    7   21 1  
    22   11   22 1  
    23   12   23 1  
    24   12   24 1  
    25   12   25 1  
    26   13   26 1  
    27   13   27 1  
    28   14   28 1  
@<TRIPOS>SUBSTRUCTURE
     1 SUB1        1 GROUP

