### 
### Created by X-TOOL on Mon Oct 24 22:47:03 2005
### 

@<TRIPOS>MOLECULE
1r0p_ligand
   56    63     1     0     0
SMALL
GAST_HUCK


@<TRIPOS>ATOM
      1 O3         11.4830   11.0410  136.5340 O.2       1 SUB1       -0.309
      2 C22        12.2770   10.5770  137.3590 C.2       1 SUB1        0.293
      3 O5         11.9180    9.2780  137.8980 O.3       1 SUB1       -0.279
      4 C26        10.6860    8.6060  137.6060 C.3       1 SUB1        0.065
      5 C1         13.6050   11.2330  137.7850 C.3       1 SUB1        0.217
      6 O4         13.5280   12.6180  137.5130 O.3       1 SUB1       -0.379
      7 C2         14.5590   10.5400  136.9320 C.3       1 SUB1        0.208
      8 O1         15.0190    9.3260  137.5600 O.3       1 SUB1       -0.315
      9 C25        14.1800   10.0260  135.5320 C.3       1 SUB1       -0.007
     10 N1         15.8860   11.2470  136.8080 N.pl3     1 SUB1       -0.230
     11 C3         16.9230   10.9960  137.6190 C.ar      1 SUB1        0.098
     12 C4         17.1280   10.1870  138.8360 C.ar      1 SUB1        0.096
     13 N2         16.1460    9.4550  139.4700 N.pl3     1 SUB1       -0.238
     14 C24        14.7800    9.3610  138.9420 C.3       1 SUB1        0.164
     15 C27        13.9250   10.6420  139.1580 C.3       1 SUB1        0.042
     16 C17        16.7760    8.8440  140.5560 C.ar      1 SUB1        0.068
     17 C18        16.2430    7.9780  141.5060 C.ar      1 SUB1       -0.041
     18 C19        17.0850    7.5240  142.5250 C.ar      1 SUB1       -0.073
     19 C20        18.4310    7.9270  142.5650 C.ar      1 SUB1       -0.075
     20 C21        18.9590    8.7840  141.5960 C.ar      1 SUB1       -0.069
     21 C16        18.1040    9.2380  140.5920 C.ar      1 SUB1       -0.007
     22 C5         18.3310   10.0620  139.4950 C.ar      1 SUB1       -0.002
     23 C6         19.4670   10.8350  138.9530 C.ar      1 SUB1        0.032
     24 C15        20.8680   10.9600  139.3900 C.2       1 SUB1        0.187
     25 O2         21.3820   10.3180  140.3070 O.2       1 SUB1       -0.397
     26 C7         19.3080   11.6350  137.8360 C.ar      1 SUB1       -0.017
     27 C23        20.5930   12.3300  137.4840 C.3       1 SUB1        0.060
     28 N3         21.4430   11.7970  138.5460 N.am      1 SUB1       -0.279
     29 C8         18.0000   11.7230  137.1610 C.ar      1 SUB1        0.002
     30 C9         17.5810   12.4000  136.0310 C.ar      1 SUB1       -0.007
     31 C10        16.2450   12.1060  135.8350 C.ar      1 SUB1        0.070
     32 C11        15.5870   12.7330  134.7230 C.ar      1 SUB1       -0.041
     33 C14        18.3200   13.3000  135.1860 C.ar      1 SUB1       -0.070
     34 C13        17.6490   13.8610  134.1010 C.ar      1 SUB1       -0.076
     35 C12        16.2930   13.5830  133.8930 C.ar      1 SUB1       -0.074
     36 H41        10.6673    7.6444  138.1398 H         1 SUB1        0.058
     37 H42         9.8360    9.2184  137.9414 H         1 SUB1        0.058
     38 H43        10.6088    8.4172  136.5251 H         1 SUB1        0.058
     39 H61        14.3412   13.0360  137.7710 H         1 SUB1        0.208
     40 H91        15.0568    9.5396  135.0796 H         1 SUB1        0.028
     41 H92        13.3640    9.2925  135.6099 H         1 SUB1        0.028
     42 H93        13.8687   10.8671  134.8952 H         1 SUB1        0.028
     43 H141       14.2480    8.4789  139.3277 H         1 SUB1        0.093
     44 H151       14.4985   11.3640  139.7577 H         1 SUB1        0.033
     45 H152       12.9957   10.3738  139.6818 H         1 SUB1        0.033
     46 H171       15.2063    7.6651  141.4572 H         1 SUB1        0.054
     47 H181       16.6983    6.8581  143.2879 H         1 SUB1        0.056
     48 H191       19.0710    7.5664  143.3621 H         1 SUB1        0.052
     49 H201       19.9996    9.0863  141.6237 H         1 SUB1        0.057
     50 H271       20.9646   12.0419  136.4896 H         1 SUB1        0.068
     51 H272       20.5071   13.4246  137.5497 H         1 SUB1        0.068
     52 H281       22.4064   12.0518  138.6291 H         1 SUB1        0.186
     53 H321       14.5371   12.5396  134.5348 H         1 SUB1        0.054
     54 H331       19.3596   13.5330  135.3858 H         1 SUB1        0.056
     55 H341       18.1784   14.5141  133.4166 H         1 SUB1        0.052
     56 H351       15.7822   14.0475  133.0573 H         1 SUB1        0.056
@<TRIPOS>BOND
     1    1    2 2  
     2    2    3 1  
     3    2    5 1  
     4    3    4 1  
     5    5    6 1  
     6    5    7 1  
     7    5   15 1  
     8    7    8 1  
     9    7    9 1  
    10    7   10 1  
    11    8   14 1  
    12   10   11 1  
    13   10   31 1  
    14   11   12 ar 
    15   11   29 ar 
    16   12   13 1  
    17   12   22 ar 
    18   13   14 1  
    19   13   16 1  
    20   14   15 1  
    21   16   17 ar 
    22   16   21 ar 
    23   17   18 ar 
    24   18   19 ar 
    25   19   20 ar 
    26   20   21 ar 
    27   21   22 ar 
    28   22   23 ar 
    29   23   24 1  
    30   23   26 ar 
    31   24   25 2  
    32   24   28 am 
    33   26   27 1  
    34   26   29 ar 
    35   27   28 1  
    36   29   30 ar 
    37   30   31 ar 
    38   30   33 ar 
    39   31   32 ar 
    40   32   35 ar 
    41   33   34 ar 
    42   34   35 ar 
    43    4   36 1  
    44    4   37 1  
    45    4   38 1  
    46    6   39 1  
    47    9   40 1  
    48    9   41 1  
    49    9   42 1  
    50   14   43 1  
    51   15   44 1  
    52   15   45 1  
    53   17   46 1  
    54   18   47 1  
    55   19   48 1  
    56   20   49 1  
    57   27   50 1  
    58   27   51 1  
    59   28   52 1  
    60   32   53 1  
    61   33   54 1  
    62   34   55 1  
    63   35   56 1  
@<TRIPOS>SUBSTRUCTURE
     1 SUB1        1 GROUP

