1r0p_ligand
  -I-interpret- 

 56 63  0  0  0  0  0  0  0  0999 V2000
   11.4830   11.0410  136.5340 O   0  0  0  0  0
   12.2770   10.5770  137.3590 C   0  0  0  0  0
   11.9180    9.2780  137.8980 O   0  0  0  0  0
   10.6860    8.6060  137.6060 C   0  0  0  0  0
   13.6050   11.2330  137.7850 C   0  0  0  0  0
   13.5280   12.6180  137.5130 O   0  0  0  0  0
   14.5590   10.5400  136.9320 C   0  0  0  0  0
   15.0190    9.3260  137.5600 O   0  0  0  0  0
   14.1800   10.0260  135.5320 C   0  0  0  0  0
   15.8860   11.2470  136.8080 N   0  0  0  0  0
   16.9230   10.9960  137.6190 C   0  0  0  0  0
   17.1280   10.1870  138.8360 C   0  0  0  0  0
   16.1460    9.4550  139.4700 N   0  0  0  0  0
   14.7800    9.3610  138.9420 C   0  0  0  0  0
   13.9250   10.6420  139.1580 C   0  0  0  0  0
   16.7760    8.8440  140.5560 C   0  0  0  0  0
   16.2430    7.9780  141.5060 C   0  0  0  0  0
   17.0850    7.5240  142.5250 C   0  0  0  0  0
   18.4310    7.9270  142.5650 C   0  0  0  0  0
   18.9590    8.7840  141.5960 C   0  0  0  0  0
   18.1040    9.2380  140.5920 C   0  0  0  0  0
   18.3310   10.0620  139.4950 C   0  0  0  0  0
   19.4670   10.8350  138.9530 C   0  0  0  0  0
   20.8680   10.9600  139.3900 C   0  0  0  0  0
   21.3820   10.3180  140.3070 O   0  0  0  0  0
   19.3080   11.6350  137.8360 C   0  0  0  0  0
   20.5930   12.3300  137.4840 C   0  0  0  0  0
   21.4430   11.7970  138.5460 N   0  0  0  0  0
   18.0000   11.7230  137.1610 C   0  0  0  0  0
   17.5810   12.4000  136.0310 C   0  0  0  0  0
   16.2450   12.1060  135.8350 C   0  0  0  0  0
   15.5870   12.7330  134.7230 C   0  0  0  0  0
   18.3200   13.3000  135.1860 C   0  0  0  0  0
   17.6490   13.8610  134.1010 C   0  0  0  0  0
   16.2930   13.5830  133.8930 C   0  0  0  0  0
   10.6673    7.6444  138.1398 H   0  0  0  0  0
    9.8360    9.2184  137.9414 H   0  0  0  0  0
   10.6088    8.4172  136.5251 H   0  0  0  0  0
   14.3412   13.0360  137.7710 H   0  0  0  0  0
   15.0568    9.5396  135.0796 H   0  0  0  0  0
   13.3640    9.2925  135.6099 H   0  0  0  0  0
   13.8687   10.8671  134.8952 H   0  0  0  0  0
   14.2480    8.4789  139.3277 H   0  0  0  0  0
   14.4985   11.3640  139.7577 H   0  0  0  0  0
   12.9957   10.3738  139.6818 H   0  0  0  0  0
   15.2063    7.6651  141.4572 H   0  0  0  0  0
   16.6983    6.8581  143.2879 H   0  0  0  0  0
   19.0710    7.5664  143.3621 H   0  0  0  0  0
   19.9996    9.0863  141.6237 H   0  0  0  0  0
   20.9646   12.0419  136.4896 H   0  0  0  0  0
   20.5071   13.4246  137.5497 H   0  0  0  0  0
   22.4064   12.0518  138.6291 H   0  0  0  0  0
   14.5371   12.5396  134.5348 H   0  0  0  0  0
   19.3596   13.5330  135.3858 H   0  0  0  0  0
   18.1784   14.5141  133.4166 H   0  0  0  0  0
   15.7822   14.0475  133.0573 H   0  0  0  0  0
  1  2  2  0  0  0
  2  3  1  0  0  0
  2  5  1  0  0  0
  3  4  1  0  0  0
  5  6  1  0  0  0
  5  7  1  0  0  0
  5 15  1  0  0  0
  7  8  1  0  0  0
  7  9  1  0  0  0
  7 10  1  0  0  0
  8 14  1  0  0  0
 10 11  1  0  0  0
 10 31  1  0  0  0
 11 12  4  0  0  0
 11 29  4  0  0  0
 12 13  1  0  0  0
 12 22  4  0  0  0
 13 14  1  0  0  0
 13 16  1  0  0  0
 14 15  1  0  0  0
 16 17  4  0  0  0
 16 21  4  0  0  0
 17 18  4  0  0  0
 18 19  4  0  0  0
 19 20  4  0  0  0
 20 21  4  0  0  0
 21 22  4  0  0  0
 22 23  4  0  0  0
 23 24  1  0  0  0
 23 26  4  0  0  0
 24 25  2  0  0  0
 24 28  1  0  0  0
 26 27  1  0  0  0
 26 29  4  0  0  0
 27 28  1  0  0  0
 29 30  4  0  0  0
 30 31  4  0  0  0
 30 33  4  0  0  0
 31 32  4  0  0  0
 32 35  4  0  0  0
 33 34  4  0  0  0
 34 35  4  0  0  0
  4 36  1  0  0  0
  4 37  1  0  0  0
  4 38  1  0  0  0
  6 39  1  0  0  0
  9 40  1  0  0  0
  9 41  1  0  0  0
  9 42  1  0  0  0
 14 43  1  0  0  0
 15 44  1  0  0  0
 15 45  1  0  0  0
 17 46  1  0  0  0
 18 47  1  0  0  0
 19 48  1  0  0  0
 20 49  1  0  0  0
 27 50  1  0  0  0
 27 51  1  0  0  0
 28 52  1  0  0  0
 32 53  1  0  0  0
 33 54  1  0  0  0
 34 55  1  0  0  0
 35 56  1  0  0  0
M  END
$$$$
