### 
### Created by X-TOOL on Mon Oct 24 23:01:56 2005
### 

@<TRIPOS>MOLECULE
1sle_ligand
  112   116     1     0     0
SMALL
GAST_HUCK


@<TRIPOS>ATOM
      1 H561       20.4581    0.2872   23.3353 H         1 SUB1        0.188
      2 H571       18.9283   -1.0185   21.1495 H         1 SUB1        0.081
      3 H601       16.9179    0.2593   21.7590 H         1 SUB1        0.043
      4 H602       17.7657    0.9508   23.1836 H         1 SUB1        0.043
      5 H621       20.3485   -0.0108   19.6457 H         1 SUB1        0.189
      6 H631       21.5399    2.5101   19.9044 H         1 SUB1        0.082
      7 H661       20.6028    1.1679   17.3282 H         1 SUB1        0.049
      8 H662       22.0897    0.7255   18.2337 H         1 SUB1        0.049
      9 H681       20.5432    3.5581   16.2286 H         1 SUB1        0.239
     10 H691       24.2571    2.3557   17.9705 H         1 SUB1        0.032
     11 H701       22.3629    5.2540   15.5418 H         1 SUB1        0.115
     12 H731       18.0099    5.1933   19.5380 H         1 SUB1        0.080
     13 H761       19.1933    6.9216   20.4435 H         1 SUB1        0.031
     14 H762       19.2796    7.5514   18.7636 H         1 SUB1        0.031
     15 H771       21.5297    7.0758   20.0797 H         1 SUB1        0.029
     16 H772       21.3884    6.5447   18.3696 H         1 SUB1        0.029
     17 H781       21.0472    4.8987   20.9151 H         1 SUB1        0.052
     18 H782       22.0182    4.5243   19.4511 H         1 SUB1        0.052
     19 H791       19.7559    4.3960   16.5501 H         1 SUB1        0.188
     20 H801       17.8624    5.9482   14.9437 H         1 SUB1        0.080
     21 H831       19.7897    3.7341   14.1336 H         1 SUB1        0.034
     22 H832       20.2449    5.4630   14.3083 H         1 SUB1        0.034
     23 H841       18.6288    6.0689   12.5558 H         1 SUB1        0.050
     24 H842       18.1634    4.3424   12.3847 H         1 SUB1        0.050
     25 H871       18.7747    4.3021   10.1925 H         1 SUB1        0.181
     26 H872       20.4348    4.3045    9.6985 H         1 SUB1        0.181
     27 H881       17.9446    2.7185   16.3852 H         1 SUB1        0.188
     28 H891       16.1239    1.5772   14.4327 H         1 SUB1        0.076
     29 H892       16.6776    0.8294   15.9692 H         1 SUB1        0.076
     30 H931       12.1650    2.0310   16.3125 H         1 SUB1        0.080
     31 H961       11.6666    0.0009   15.2132 H         1 SUB1        0.031
     32 H962       11.1531   -0.3987   16.8875 H         1 SUB1        0.031
     33 H971       12.8968   -2.0366   15.7565 H         1 SUB1        0.029
     34 H972       13.3157   -1.4254   17.3928 H         1 SUB1        0.029
     35 H981       14.2573   -0.4036   14.6608 H         1 SUB1        0.052
     36 H982       15.2292   -0.7050   16.1411 H         1 SUB1        0.052
     37 H1001      11.8004    1.9796   21.0129 H         1 SUB1        0.080
     38 H1031       9.5737    1.5906   21.6399 H         1 SUB1        0.031
     39 H1032       9.3483    0.2918   20.4197 H         1 SUB1        0.031
     40 H1041       9.5776    3.3177   19.9577 H         1 SUB1        0.029
     41 H1042       8.2930    2.1996   19.3868 H         1 SUB1        0.029
     42 H1051      10.3441    2.8476   17.7374 H         1 SUB1        0.052
     43 H1052       9.7419    1.1561   17.7884 H         1 SUB1        0.052
     44 H1061      12.5532    0.3959   22.5351 H         1 SUB1        0.188
     45 H1071      13.0536   -2.2445   21.2322 H         1 SUB1        0.081
     46 H1101      14.9103   -0.4181   22.7859 H         1 SUB1        0.043
     47 H1102      14.9018   -0.6946   21.0110 H         1 SUB1        0.043
     48 H551       19.0917   -2.7374   21.7583 H         1 SUB1        0.047
     49 H552       19.2606   -3.6001   23.3247 H         1 SUB1        0.047
     50 H553       20.6320   -3.5673   22.1650 H         1 SUB1        0.047
     51 H1121      12.3613   -4.1504   23.9052 H         1 SUB1        0.182
     52 H1122      12.7429   -3.9554   22.2270 H         1 SUB1        0.182
     53 C          20.3050   -1.7120   23.2220 C.2       1 SUB1        0.175
     54 O          21.0950   -1.8610   24.1520 O.2       1 SUB1       -0.397
     55 CH3        19.7860   -2.9940   22.5720 C.3       1 SUB1        0.026
     56 N          19.9970   -0.4720   22.8760 N.am      1 SUB1       -0.265
     57 CA         19.0160   -0.1800   21.8560 C.3       1 SUB1        0.141
     58 C          19.4960    1.0710   21.1320 C.2       1 SUB1        0.205
     59 O          19.2470    2.1830   21.6030 O.2       1 SUB1       -0.394
     60 CB         17.6770    0.0690   22.5320 C.3       1 SUB1        0.044
     61 SG         17.1530   -1.3490   23.5320 S.3       1 SUB1       -0.088
     62 N          20.2020    0.9120   20.0020 N.am      1 SUB1       -0.262
     63 CA         20.7610    2.0480   19.2800 C.3       1 SUB1        0.142
     64 C          19.7060    3.1080   18.9690 C.2       1 SUB1        0.208
     65 O          18.6170    2.7480   18.5050 O.2       1 SUB1       -0.394
     66 CB         21.3960    1.5440   17.9910 C.3       1 SUB1        0.043
     67 CG         22.1680    2.6450   17.2610 C.2       1 SUB1        0.056
     68 ND1        21.5370    3.5340   16.4980 N.pl3     1 SUB1       -0.262
     69 CD2        23.5050    2.9120   17.4130 C.2       1 SUB1       -0.028
     70 CE1        22.4970    4.3760   16.1720 C.2       1 SUB1        0.087
     71 NE2        23.6410    4.0100   16.7130 N.2       1 SUB1       -0.344
     72 N          19.9130    4.4140   19.1850 N.am      1 SUB1       -0.250
     73 CA         18.8800    5.4220   18.9050 C.3       1 SUB1        0.134
     74 C          18.3290    5.5150   17.4720 C.2       1 SUB1        0.204
     75 O          17.3280    6.1990   17.2640 O.2       1 SUB1       -0.394
     76 CB         19.5250    6.7020   19.4180 C.3       1 SUB1       -0.010
     77 CG         20.9880    6.4160   19.3860 C.3       1 SUB1       -0.028
     78 CD         21.0930    4.9910   19.8200 C.3       1 SUB1        0.037
     79 N          18.9040    4.9020   16.4150 N.am      1 SUB1       -0.264
     80 CA         18.3190    4.9580   15.0890 C.3       1 SUB1        0.133
     81 C          17.2280    3.8910   14.9150 C.2       1 SUB1        0.204
     82 O          16.3120    4.0770   14.1190 O.2       1 SUB1       -0.394
     83 CB         19.4260    4.7700   14.0650 C.3       1 SUB1        0.004
     84 CG         18.9860    5.0310   12.6280 C.3       1 SUB1        0.041
     85 CD         20.0990    4.8320   11.6090 C.2       1 SUB1        0.174
     86 OE1        21.2950    5.0300   11.8620 O.2       1 SUB1       -0.397
     87 NE2        19.7410    4.4490   10.4040 N.am      1 SUB1       -0.301
     88 N          17.2440    2.8060   15.6770 N.am      1 SUB1       -0.266
     89 CA         16.2720    1.7430   15.5100 C.3       1 SUB1        0.120
     90 C          14.9170    2.0320   16.1390 C.2       1 SUB1        0.203
     91 O          14.6450    3.1670   16.5570 O.2       1 SUB1       -0.394
     92 N          14.0140    1.0340   16.2030 N.am      1 SUB1       -0.250
     93 CA         12.6660    1.1600   16.7600 C.3       1 SUB1        0.134
     94 C          12.6220    1.3570   18.2900 C.2       1 SUB1        0.207
     95 O          13.6710    1.3540   18.9390 O.2       1 SUB1       -0.394
     96 CB         12.0060   -0.1160   16.2530 C.3       1 SUB1       -0.010
     97 CG         13.1170   -1.1370   16.3500 C.3       1 SUB1       -0.028
     98 CD         14.2640   -0.3410   15.7590 C.3       1 SUB1        0.037
     99 N          11.4700    1.5300   18.9620 N.am      1 SUB1       -0.250
    100 CA         11.3010    1.2230   20.3900 C.3       1 SUB1        0.134
    101 C          11.9040   -0.1500   20.6910 C.2       1 SUB1        0.204
    102 O          11.7650   -1.0810   19.8820 O.2       1 SUB1       -0.394
    103 CB          9.8120    1.2700   20.6150 C.3       1 SUB1       -0.010
    104 CG          9.3670    2.2980   19.6030 C.3       1 SUB1       -0.028
    105 CD         10.2040    1.9630   18.3760 C.3       1 SUB1        0.037
    106 N          12.5570   -0.3210   21.8380 N.am      1 SUB1       -0.263
    107 CA         13.2710   -1.5560   22.0620 C.3       1 SUB1        0.140
    108 C          12.8630   -2.2700   23.3440 C.2       1 SUB1        0.200
    109 O          12.7060   -1.7090   24.4340 O.2       1 SUB1       -0.395
    110 CB         14.7520   -1.1650   21.9940 C.3       1 SUB1        0.044
    111 SG         16.0800   -2.3930   22.1790 S.3       1 SUB1       -0.088
    112 N          12.6370   -3.5660   23.1420 N.am      1 SUB1       -0.299
@<TRIPOS>BOND
     1   56    1 1  
     2   57    2 1  
     3   60    3 1  
     4   60    4 1  
     5   62    5 1  
     6   63    6 1  
     7   66    7 1  
     8   66    8 1  
     9   68    9 1  
    10   69   10 1  
    11   70   11 1  
    12   73   12 1  
    13   76   13 1  
    14   76   14 1  
    15   77   15 1  
    16   77   16 1  
    17   78   17 1  
    18   78   18 1  
    19   79   19 1  
    20   80   20 1  
    21   83   21 1  
    22   83   22 1  
    23   84   23 1  
    24   84   24 1  
    25   87   25 1  
    26   87   26 1  
    27   88   27 1  
    28   89   28 1  
    29   89   29 1  
    30   93   30 1  
    31   96   31 1  
    32   96   32 1  
    33   97   33 1  
    34   97   34 1  
    35   98   35 1  
    36   98   36 1  
    37  100   37 1  
    38  103   38 1  
    39  103   39 1  
    40  104   40 1  
    41  104   41 1  
    42  105   42 1  
    43  105   43 1  
    44  106   44 1  
    45  107   45 1  
    46  110   46 1  
    47  110   47 1  
    48   55   48 1  
    49   55   49 1  
    50   55   50 1  
    51   53   54 2  
    52   53   55 1  
    53   57   58 1  
    54   60   57 1  
    55   57   56 1  
    56   61   60 1  
    57   58   59 2  
    58   63   64 1  
    59   63   66 1  
    60   62   63 1  
    61   66   67 1  
    62   67   69 2  
    63   67   68 1  
    64   68   70 1  
    65   70   71 2  
    66   69   71 1  
    67   64   65 2  
    68   72   73 1  
    69   73   76 1  
    70   73   74 1  
    71   74   75 2  
    72   77   76 1  
    73   78   77 1  
    74   72   78 1  
    75   81   80 1  
    76   80   83 1  
    77   80   79 1  
    78   83   84 1  
    79   84   85 1  
    80   85   86 2  
    81   85   87 am 
    82   81   82 2  
    83   90   89 1  
    84   89   88 1  
    85   90   91 2  
    86   93   92 1  
    87   93   96 1  
    88   94   93 1  
    89   94   95 2  
    90   96   97 1  
    91   97   98 1  
    92   92   98 1  
    93  100   99 1  
    94  100  103 1  
    95  101  100 1  
    96  101  102 2  
    97  103  104 1  
    98  104  105 1  
    99   99  105 1  
   100  108  107 1  
   101  107  110 1  
   102  107  106 1  
   103  110  111 1  
   104  108  109 2  
   105  112   51 1  
   106  112   52 1  
   107   56   53 am 
   108   58   62 am 
   109   64   72 am 
   110   74   79 am 
   111   88   81 am 
   112   92   90 am 
   113   99   94 am 
   114  106  101 am 
   115  111   61 1  
   116  108  112 am 
@<TRIPOS>SUBSTRUCTURE
     1 SUB1        1 GROUP

