1sle_ligand
  -I-interpret- 

112116  0  0  0  0  0  0  0  0999 V2000
   20.4581    0.2872   23.3353 H   0  0  0  0  0
   18.9283   -1.0185   21.1495 H   0  0  0  0  0
   16.9179    0.2593   21.7590 H   0  0  0  0  0
   17.7657    0.9508   23.1836 H   0  0  0  0  0
   20.3485   -0.0108   19.6457 H   0  0  0  0  0
   21.5399    2.5101   19.9044 H   0  0  0  0  0
   20.6028    1.1679   17.3282 H   0  0  0  0  0
   22.0897    0.7255   18.2337 H   0  0  0  0  0
   20.5432    3.5581   16.2286 H   0  0  0  0  0
   24.2571    2.3557   17.9705 H   0  0  0  0  0
   22.3629    5.2540   15.5418 H   0  0  0  0  0
   18.0099    5.1933   19.5380 H   0  0  0  0  0
   19.1933    6.9216   20.4435 H   0  0  0  0  0
   19.2796    7.5514   18.7636 H   0  0  0  0  0
   21.5297    7.0758   20.0797 H   0  0  0  0  0
   21.3884    6.5447   18.3696 H   0  0  0  0  0
   21.0472    4.8987   20.9151 H   0  0  0  0  0
   22.0182    4.5243   19.4511 H   0  0  0  0  0
   19.7559    4.3960   16.5501 H   0  0  0  0  0
   17.8624    5.9482   14.9437 H   0  0  0  0  0
   19.7897    3.7341   14.1336 H   0  0  0  0  0
   20.2449    5.4630   14.3083 H   0  0  0  0  0
   18.6288    6.0689   12.5558 H   0  0  0  0  0
   18.1634    4.3424   12.3847 H   0  0  0  0  0
   18.7747    4.3021   10.1925 H   0  0  0  0  0
   20.4348    4.3045    9.6985 H   0  0  0  0  0
   17.9446    2.7185   16.3852 H   0  0  0  0  0
   16.1239    1.5772   14.4327 H   0  0  0  0  0
   16.6776    0.8294   15.9692 H   0  0  0  0  0
   12.1650    2.0310   16.3125 H   0  0  0  0  0
   11.6666    0.0009   15.2132 H   0  0  0  0  0
   11.1531   -0.3987   16.8875 H   0  0  0  0  0
   12.8968   -2.0366   15.7565 H   0  0  0  0  0
   13.3157   -1.4254   17.3928 H   0  0  0  0  0
   14.2573   -0.4036   14.6608 H   0  0  0  0  0
   15.2292   -0.7050   16.1411 H   0  0  0  0  0
   11.8004    1.9796   21.0129 H   0  0  0  0  0
    9.5737    1.5906   21.6399 H   0  0  0  0  0
    9.3483    0.2918   20.4197 H   0  0  0  0  0
    9.5776    3.3177   19.9577 H   0  0  0  0  0
    8.2930    2.1996   19.3868 H   0  0  0  0  0
   10.3441    2.8476   17.7374 H   0  0  0  0  0
    9.7419    1.1561   17.7884 H   0  0  0  0  0
   12.5532    0.3959   22.5351 H   0  0  0  0  0
   13.0536   -2.2445   21.2322 H   0  0  0  0  0
   14.9103   -0.4181   22.7859 H   0  0  0  0  0
   14.9018   -0.6946   21.0110 H   0  0  0  0  0
   19.0917   -2.7374   21.7583 H   0  0  0  0  0
   19.2606   -3.6001   23.3247 H   0  0  0  0  0
   20.6320   -3.5673   22.1650 H   0  0  0  0  0
   12.3613   -4.1504   23.9052 H   0  0  0  0  0
   12.7429   -3.9554   22.2270 H   0  0  0  0  0
   20.3050   -1.7120   23.2220 C   0  0  0  0  0
   21.0950   -1.8610   24.1520 O   0  0  0  0  0
   19.7860   -2.9940   22.5720 C   0  0  0  0  0
   19.9970   -0.4720   22.8760 N   0  0  0  0  0
   19.0160   -0.1800   21.8560 C   0  0  0  0  0
   19.4960    1.0710   21.1320 C   0  0  0  0  0
   19.2470    2.1830   21.6030 O   0  0  0  0  0
   17.6770    0.0690   22.5320 C   0  0  0  0  0
   17.1530   -1.3490   23.5320 S   0  0  0  0  0
   20.2020    0.9120   20.0020 N   0  0  0  0  0
   20.7610    2.0480   19.2800 C   0  0  0  0  0
   19.7060    3.1080   18.9690 C   0  0  0  0  0
   18.6170    2.7480   18.5050 O   0  0  0  0  0
   21.3960    1.5440   17.9910 C   0  0  0  0  0
   22.1680    2.6450   17.2610 C   0  0  0  0  0
   21.5370    3.5340   16.4980 N   0  0  0  0  0
   23.5050    2.9120   17.4130 C   0  0  0  0  0
   22.4970    4.3760   16.1720 C   0  0  0  0  0
   23.6410    4.0100   16.7130 N   0  0  0  0  0
   19.9130    4.4140   19.1850 N   0  0  0  0  0
   18.8800    5.4220   18.9050 C   0  0  0  0  0
   18.3290    5.5150   17.4720 C   0  0  0  0  0
   17.3280    6.1990   17.2640 O   0  0  0  0  0
   19.5250    6.7020   19.4180 C   0  0  0  0  0
   20.9880    6.4160   19.3860 C   0  0  0  0  0
   21.0930    4.9910   19.8200 C   0  0  0  0  0
   18.9040    4.9020   16.4150 N   0  0  0  0  0
   18.3190    4.9580   15.0890 C   0  0  0  0  0
   17.2280    3.8910   14.9150 C   0  0  0  0  0
   16.3120    4.0770   14.1190 O   0  0  0  0  0
   19.4260    4.7700   14.0650 C   0  0  0  0  0
   18.9860    5.0310   12.6280 C   0  0  0  0  0
   20.0990    4.8320   11.6090 C   0  0  0  0  0
   21.2950    5.0300   11.8620 O   0  0  0  0  0
   19.7410    4.4490   10.4040 N   0  0  0  0  0
   17.2440    2.8060   15.6770 N   0  0  0  0  0
   16.2720    1.7430   15.5100 C   0  0  0  0  0
   14.9170    2.0320   16.1390 C   0  0  0  0  0
   14.6450    3.1670   16.5570 O   0  0  0  0  0
   14.0140    1.0340   16.2030 N   0  0  0  0  0
   12.6660    1.1600   16.7600 C   0  0  0  0  0
   12.6220    1.3570   18.2900 C   0  0  0  0  0
   13.6710    1.3540   18.9390 O   0  0  0  0  0
   12.0060   -0.1160   16.2530 C   0  0  0  0  0
   13.1170   -1.1370   16.3500 C   0  0  0  0  0
   14.2640   -0.3410   15.7590 C   0  0  0  0  0
   11.4700    1.5300   18.9620 N   0  0  0  0  0
   11.3010    1.2230   20.3900 C   0  0  0  0  0
   11.9040   -0.1500   20.6910 C   0  0  0  0  0
   11.7650   -1.0810   19.8820 O   0  0  0  0  0
    9.8120    1.2700   20.6150 C   0  0  0  0  0
    9.3670    2.2980   19.6030 C   0  0  0  0  0
   10.2040    1.9630   18.3760 C   0  0  0  0  0
   12.5570   -0.3210   21.8380 N   0  0  0  0  0
   13.2710   -1.5560   22.0620 C   0  0  0  0  0
   12.8630   -2.2700   23.3440 C   0  0  0  0  0
   12.7060   -1.7090   24.4340 O   0  0  0  0  0
   14.7520   -1.1650   21.9940 C   0  0  0  0  0
   16.0800   -2.3930   22.1790 S   0  0  0  0  0
   12.6370   -3.5660   23.1420 N   0  0  0  0  0
 56  1  1  0  0  0
 57  2  1  0  0  0
 60  3  1  0  0  0
 60  4  1  0  0  0
 62  5  1  0  0  0
 63  6  1  0  0  0
 66  7  1  0  0  0
 66  8  1  0  0  0
 68  9  1  0  0  0
 69 10  1  0  0  0
 70 11  1  0  0  0
 73 12  1  0  0  0
 76 13  1  0  0  0
 76 14  1  0  0  0
 77 15  1  0  0  0
 77 16  1  0  0  0
 78 17  1  0  0  0
 78 18  1  0  0  0
 79 19  1  0  0  0
 80 20  1  0  0  0
 83 21  1  0  0  0
 83 22  1  0  0  0
 84 23  1  0  0  0
 84 24  1  0  0  0
 87 25  1  0  0  0
 87 26  1  0  0  0
 88 27  1  0  0  0
 89 28  1  0  0  0
 89 29  1  0  0  0
 93 30  1  0  0  0
 96 31  1  0  0  0
 96 32  1  0  0  0
 97 33  1  0  0  0
 97 34  1  0  0  0
 98 35  1  0  0  0
 98 36  1  0  0  0
100 37  1  0  0  0
103 38  1  0  0  0
103 39  1  0  0  0
104 40  1  0  0  0
104 41  1  0  0  0
105 42  1  0  0  0
105 43  1  0  0  0
106 44  1  0  0  0
107 45  1  0  0  0
110 46  1  0  0  0
110 47  1  0  0  0
 55 48  1  0  0  0
 55 49  1  0  0  0
 55 50  1  0  0  0
 53 54  2  0  0  0
 53 55  1  0  0  0
 57 58  1  0  0  0
 60 57  1  0  0  0
 57 56  1  0  0  0
 61 60  1  0  0  0
 58 59  2  0  0  0
 63 64  1  0  0  0
 63 66  1  0  0  0
 62 63  1  0  0  0
 66 67  1  0  0  0
 67 69  2  0  0  0
 67 68  1  0  0  0
 68 70  1  0  0  0
 70 71  2  0  0  0
 69 71  1  0  0  0
 64 65  2  0  0  0
 72 73  1  0  0  0
 73 76  1  0  0  0
 73 74  1  0  0  0
 74 75  2  0  0  0
 77 76  1  0  0  0
 78 77  1  0  0  0
 72 78  1  0  0  0
 81 80  1  0  0  0
 80 83  1  0  0  0
 80 79  1  0  0  0
 83 84  1  0  0  0
 84 85  1  0  0  0
 85 86  2  0  0  0
 85 87  1  0  0  0
 81 82  2  0  0  0
 90 89  1  0  0  0
 89 88  1  0  0  0
 90 91  2  0  0  0
 93 92  1  0  0  0
 93 96  1  0  0  0
 94 93  1  0  0  0
 94 95  2  0  0  0
 96 97  1  0  0  0
 97 98  1  0  0  0
 92 98  1  0  0  0
100 99  1  0  0  0
100103  1  0  0  0
101100  1  0  0  0
101102  2  0  0  0
103104  1  0  0  0
104105  1  0  0  0
 99105  1  0  0  0
108107  1  0  0  0
107110  1  0  0  0
107106  1  0  0  0
110111  1  0  0  0
108109  2  0  0  0
112 51  1  0  0  0
112 52  1  0  0  0
 56 53  1  0  0  0
 58 62  1  0  0  0
 64 72  1  0  0  0
 74 79  1  0  0  0
 88 81  1  0  0  0
 92 90  1  0  0  0
 99 94  1  0  0  0
106101  1  0  0  0
111 61  1  0  0  0
108112  1  0  0  0
M  END
$$$$
