1fdq_ligand
  -I-interpret- 

 55 54  0  0  0  0  0  0  0  0999 V2000
    7.0540   13.4820   -0.1610 C   0  0  0  0  0
    8.2420   13.4820   -0.4650 O   0  0  0  0  0
    6.4390   14.5480    0.4130 O   0  5  0  0  0
    6.0960   12.3080   -0.3900 C   0  0  0  0  0
    6.7060   10.9930    0.1580 C   0  0  0  0  0
    7.0460    9.9960   -0.9350 C   0  0  0  0  0
    6.5630    8.7570   -1.0950 C   0  0  0  0  0
    5.5490    8.0660   -0.2000 C   0  0  0  0  0
    5.2110    6.6420   -0.6090 C   0  0  0  0  0
    4.2290    5.8940   -0.0870 C   0  0  0  0  0
    3.2340    6.2990    0.9860 C   0  0  0  0  0
    1.9680    6.8880    0.3890 C   0  0  0  0  0
    1.1480    7.7930    0.9360 C   0  0  0  0  0
    1.2540    8.4760    2.2870 C   0  0  0  0  0
    1.2220    9.9850    2.1460 C   0  0  0  0  0
    2.2310   10.8480    2.3310 C   0  0  0  0  0
    3.6570   10.5270    2.7260 C   0  0  0  0  0
    3.8380   10.3100    4.2170 C   0  0  0  0  0
    4.9550    9.8920    4.8260 C   0  0  0  0  0
    6.2810    9.5280    4.1870 C   0  0  0  0  0
    6.3280    8.0740    3.7530 C   0  0  0  0  0
    7.3790    7.2460    3.7920 C   0  0  0  0  0
    8.7660    7.5750    4.3090 C   0  0  0  0  0
    9.6350    6.3170    4.4370 C   0  0  0  0  0
    5.9095   12.1983   -1.4685 H   0  0  0  0  0
    5.1466   12.5095    0.1276 H   0  0  0  0  0
    5.9808   10.5288    0.8425 H   0  0  0  0  0
    7.6264   11.2365    0.7089 H   0  0  0  0  0
    7.7694   10.3280   -1.6782 H   0  0  0  0  0
    6.9328    8.1908   -1.9486 H   0  0  0  0  0
    4.6209    8.6563   -0.2135 H   0  0  0  0  0
    5.9537    8.0423    0.8226 H   0  0  0  0  0
    5.8181    6.1911   -1.3926 H   0  0  0  0  0
    4.1340    4.8814   -0.4764 H   0  0  0  0  0
    3.7017    7.0497    1.6400 H   0  0  0  0  0
    2.9684    5.4111    1.5784 H   0  0  0  0  0
    1.6948    6.5312   -0.6029 H   0  0  0  0  0
    0.2890    8.0777    0.3301 H   0  0  0  0  0
    2.2000    8.1809    2.7644 H   0  0  0  0  0
    0.4104    8.1572    2.9168 H   0  0  0  0  0
    0.2653   10.4198    1.8604 H   0  0  0  0  0
    1.9983   11.9010    2.1798 H   0  0  0  0  0
    4.3009   11.3629    2.4152 H   0  0  0  0  0
    3.9660    9.6112    2.2009 H   0  0  0  0  0
    2.9773   10.5136    4.8524 H   0  0  0  0  0
    4.9050    9.8028    5.9102 H   0  0  0  0  0
    7.0860    9.7066    4.9150 H   0  0  0  0  0
    6.4362   10.1663    3.3047 H   0  0  0  0  0
    5.3999    7.6566    3.3653 H   0  0  0  0  0
    7.2225    6.2363    3.4152 H   0  0  0  0  0
    8.6753    8.0481    5.2979 H   0  0  0  0  0
    9.2505    8.2738    3.6112 H   0  0  0  0  0
   10.6302    6.5956    4.8137 H   0  0  0  0  0
    9.7365    5.8396    3.4512 H   0  0  0  0  0
    9.1614    5.6139    5.1379 H   0  0  0  0  0
  1  4  1  0  0  0
  1  3  1  0  0  0
  1  2  2  0  0  0
  4  5  1  0  0  0
  5  6  1  0  0  0
  6  7  2  0  0  0
  7  8  1  0  0  0
  8  9  1  0  0  0
  9 10  2  0  0  0
 10 11  1  0  0  0
 11 12  1  0  0  0
 12 13  2  0  0  0
 13 14  1  0  0  0
 14 15  1  0  0  0
 15 16  2  0  0  0
 16 17  1  0  0  0
 17 18  1  0  0  0
 18 19  2  0  0  0
 19 20  1  0  0  0
 20 21  1  0  0  0
 21 22  2  0  0  0
 22 23  1  0  0  0
 23 24  1  0  0  0
  4 25  1  0  0  0
  4 26  1  0  0  0
  5 27  1  0  0  0
  5 28  1  0  0  0
  6 29  1  0  0  0
  7 30  1  0  0  0
  8 31  1  0  0  0
  8 32  1  0  0  0
  9 33  1  0  0  0
 10 34  1  0  0  0
 11 35  1  0  0  0
 11 36  1  0  0  0
 12 37  1  0  0  0
 13 38  1  0  0  0
 14 39  1  0  0  0
 14 40  1  0  0  0
 15 41  1  0  0  0
 16 42  1  0  0  0
 17 43  1  0  0  0
 17 44  1  0  0  0
 18 45  1  0  0  0
 19 46  1  0  0  0
 20 47  1  0  0  0
 20 48  1  0  0  0
 21 49  1  0  0  0
 22 50  1  0  0  0
 23 51  1  0  0  0
 23 52  1  0  0  0
 24 53  1  0  0  0
 24 54  1  0  0  0
 24 55  1  0  0  0
M  END
$$$$
