### 
### Created by X-TOOL on Tue Oct 25 02:32:21 2005
### 

@<TRIPOS>MOLECULE
1grp_ligand
   18    17     1     0     0
SMALL
GAST_HUCK


@<TRIPOS>ATOM
      1 C1         85.3340   67.4820    3.4280 C.2       1 SUB1        0.060
      2 O1         85.8940   66.7740    4.2520 O.co2     1 SUB1       -0.564
      3 O2         84.8120   68.5500    3.7260 O.co2     1 SUB1       -0.564
      4 C2         85.2860   66.9910    1.9840 C.3       1 SUB1        0.112
      5 O7         84.8980   68.0580    1.1360 O.3       1 SUB1       -0.372
      6 C3         84.3130   65.8010    1.8310 C.3       1 SUB1        0.047
      7 C4         84.3210   65.2300    0.4060 C.3       1 SUB1        0.005
      8 C5         85.1940   64.0140    0.2250 C.2       1 SUB1        0.032
      9 O3         86.2050   64.1000   -0.4670 O.co2     1 SUB1       -0.566
     10 O4         84.8440   62.9760    0.7710 O.co2     1 SUB1       -0.566
     11 C6         82.8650   66.2010    2.1800 C.2       1 SUB1        0.040
     12 O5         82.5580   66.2640    3.3680 O.co2     1 SUB1       -0.566
     13 O6         82.0430   66.4310    1.2920 O.co2     1 SUB1       -0.566
     14 H41        86.2927   66.6563    1.6935 H         1 SUB1        0.086
     15 H51        84.0216   68.3423    1.3674 H         1 SUB1        0.215
     16 H61        84.6355   65.0112    2.5254 H         1 SUB1        0.062
     17 H71        84.6790   66.0147   -0.2767 H         1 SUB1        0.053
     18 H72        83.2896   64.9552    0.1401 H         1 SUB1        0.053
@<TRIPOS>BOND
     1    1    4 1  
     2    1    3 2  
     3    1    2 2  
     4    4    6 1  
     5    4    5 1  
     6    6   11 1  
     7    6    7 1  
     8    7    8 1  
     9    8   10 2  
    10    8    9 2  
    11   11   13 2  
    12   11   12 2  
    13    4   14 1  
    14    5   15 1  
    15    6   16 1  
    16    7   17 1  
    17    7   18 1  
@<TRIPOS>SUBSTRUCTURE
     1 SUB1        1 GROUP

