### 
### Created by X-TOOL on Mon Oct 24 22:50:50 2005
### 

@<TRIPOS>MOLECULE
1g46_ligand
   34    35     1     0     0
SMALL
GAST_HUCK


@<TRIPOS>ATOM
      1 H31        -2.7384    3.5784   14.5438 H         1 SUB1        0.067
      2 H41        -3.4554    1.5851   15.8676 H         1 SUB1        0.065
      3 C01        -3.7760    3.4840   14.8430 C.ar      1 SUB1       -0.040
      4 C02        -4.1720    2.3500   15.5910 C.ar      1 SUB1       -0.030
      5 C03        -5.5470    2.2440   15.9710 C.ar      1 SUB1        0.112
      6 C04        -6.4400    3.2680   15.5950 C.ar      1 SUB1       -0.030
      7 C05        -5.9960    4.3740   14.8560 C.ar      1 SUB1       -0.040
      8 C06        -4.6820    4.4900   14.4760 C.ar      1 SUB1        0.050
      9 C07        -4.2030    5.6770   13.6740 C.2       1 SUB1        0.207
     10 O08        -4.9920    6.5560   13.3470 O.2       1 SUB1       -0.384
     11 N09        -2.8760    5.7480   13.3320 N.am      1 SUB1       -0.275
     12 C10        -2.1590    6.7810   12.5860 C.3       1 SUB1        0.064
     13 S11        -6.0790    0.8210   16.8920 S.o2      1 SUB1        0.068
     14 NP2        -5.6770   -0.5870   16.0830 N.am      1 SUB1       -0.261
     15 O13        -7.5130    1.0660   17.0180 O.2       1 SUB1       -0.150
     16 O14        -5.4220    1.0020   18.1930 O.2       1 SUB1       -0.150
     17 C15        -1.6020    7.8570   13.3630 C.ar      1 SUB1        0.011
     18 C16        -1.9250    7.9340   14.7600 C.ar      1 SUB1       -0.064
     19 C17        -1.3710    9.0150   15.5610 C.ar      1 SUB1       -0.074
     20 C18        -0.5050    9.9880   14.9340 C.ar      1 SUB1       -0.037
     21 C19        -0.1790    9.9230   13.5560 C.ar      1 SUB1        0.159
     22 C20        -0.7250    8.8540   12.7540 C.ar      1 SUB1        0.168
     23 F21         0.3700   10.5560   13.1960 F         1 SUB1       -0.186
     24 F22        -0.4600    8.8140   11.6700 F         1 SUB1       -0.190
     25 H61        -7.4834    3.1996   15.8808 H         1 SUB1        0.065
     26 H71        -6.7015    5.1495   14.5805 H         1 SUB1        0.067
     27 H111       -2.3158    4.9785   13.6387 H         1 SUB1        0.187
     28 H121       -2.8608    7.2192   11.8611 H         1 SUB1        0.067
     29 H122       -1.3328    6.2935   12.0478 H         1 SUB1        0.067
     30 H141       -5.9139   -1.4822   16.4812 H         1 SUB1        0.163
     31 H181       -2.5750    7.1943   15.2133 H         1 SUB1        0.051
     32 H191       -1.6052    9.0900   16.6168 H         1 SUB1        0.056
     33 H201       -0.0930   10.7906   15.5350 H         1 SUB1        0.054
     34 H142       -5.2017   -0.5406   15.2044 H         1 SUB1        0.163
@<TRIPOS>BOND
     1    3    8 ar 
     2    3    4 ar 
     3    4    5 ar 
     4    5   13 1  
     5    5    6 ar 
     6    6    7 ar 
     7    7    8 ar 
     8    8    9 1  
     9    9   11 am 
    10    9   10 2  
    11   11   12 1  
    12   12   17 1  
    13   17   22 ar 
    14   17   18 ar 
    15   18   19 ar 
    16   19   20 ar 
    17   20   21 ar 
    18   21   22 ar 
    19   13   16 2  
    20   13   15 2  
    21   13   14 1  
    22   22   24 1  
    23   21   23 1  
    24    3    1 1  
    25    4    2 1  
    26    6   25 1  
    27    7   26 1  
    28   11   27 1  
    29   12   28 1  
    30   12   29 1  
    31   14   30 1  
    32   18   31 1  
    33   19   32 1  
    34   20   33 1  
    35   14   34 1  
@<TRIPOS>SUBSTRUCTURE
     1 SUB1        1 GROUP

