1g46_ligand
  -I-interpret- 

 34 35  0  0  0  0  0  0  0  0999 V2000
   -2.7384    3.5784   14.5438 H   0  0  0  0  0
   -3.4554    1.5851   15.8676 H   0  0  0  0  0
   -3.7760    3.4840   14.8430 C   0  0  0  0  0
   -4.1720    2.3500   15.5910 C   0  0  0  0  0
   -5.5470    2.2440   15.9710 C   0  0  0  0  0
   -6.4400    3.2680   15.5950 C   0  0  0  0  0
   -5.9960    4.3740   14.8560 C   0  0  0  0  0
   -4.6820    4.4900   14.4760 C   0  0  0  0  0
   -4.2030    5.6770   13.6740 C   0  0  0  0  0
   -4.9920    6.5560   13.3470 O   0  0  0  0  0
   -2.8760    5.7480   13.3320 N   0  0  0  0  0
   -2.1590    6.7810   12.5860 C   0  0  0  0  0
   -6.0790    0.8210   16.8920 S   0  0  0  0  0
   -5.6770   -0.5870   16.0830 N   0  0  0  0  0
   -7.5130    1.0660   17.0180 O   0  0  0  0  0
   -5.4220    1.0020   18.1930 O   0  0  0  0  0
   -1.6020    7.8570   13.3630 C   0  0  0  0  0
   -1.9250    7.9340   14.7600 C   0  0  0  0  0
   -1.3710    9.0150   15.5610 C   0  0  0  0  0
   -0.5050    9.9880   14.9340 C   0  0  0  0  0
   -0.1790    9.9230   13.5560 C   0  0  0  0  0
   -0.7250    8.8540   12.7540 C   0  0  0  0  0
    0.3700   10.5560   13.1960 F   0  0  0  0  0
   -0.4600    8.8140   11.6700 F   0  0  0  0  0
   -7.4834    3.1996   15.8808 H   0  0  0  0  0
   -6.7015    5.1495   14.5805 H   0  0  0  0  0
   -2.3158    4.9785   13.6387 H   0  0  0  0  0
   -2.8608    7.2192   11.8611 H   0  0  0  0  0
   -1.3328    6.2935   12.0478 H   0  0  0  0  0
   -5.9139   -1.4822   16.4812 H   0  0  0  0  0
   -2.5750    7.1943   15.2133 H   0  0  0  0  0
   -1.6052    9.0900   16.6168 H   0  0  0  0  0
   -0.0930   10.7906   15.5350 H   0  0  0  0  0
   -5.2017   -0.5406   15.2044 H   0  0  0  0  0
  3  8  4  0  0  0
  3  4  4  0  0  0
  4  5  4  0  0  0
  5 13  1  0  0  0
  5  6  4  0  0  0
  6  7  4  0  0  0
  7  8  4  0  0  0
  8  9  1  0  0  0
  9 11  1  0  0  0
  9 10  2  0  0  0
 11 12  1  0  0  0
 12 17  1  0  0  0
 17 22  4  0  0  0
 17 18  4  0  0  0
 18 19  4  0  0  0
 19 20  4  0  0  0
 20 21  4  0  0  0
 21 22  4  0  0  0
 13 16  2  0  0  0
 13 15  2  0  0  0
 13 14  1  0  0  0
 22 24  1  0  0  0
 21 23  1  0  0  0
  3  1  1  0  0  0
  4  2  1  0  0  0
  6 25  1  0  0  0
  7 26  1  0  0  0
 11 27  1  0  0  0
 12 28  1  0  0  0
 12 29  1  0  0  0
 14 30  1  0  0  0
 18 31  1  0  0  0
 19 32  1  0  0  0
 20 33  1  0  0  0
 14 34  1  0  0  0
M  END
$$$$
