### 
### Created by X-TOOL on Mon Oct 24 21:53:45 2005
### 

@<TRIPOS>MOLECULE
1sdt_ligand
   92    96     1     0     0
SMALL
GAST_HUCK


@<TRIPOS>ATOM
      1 N1         23.3900   20.5370    2.9880 N.3       1 SUB1       -0.285
      2 C1         23.4540   20.4130    4.4810 C.3       1 SUB1        0.034
      3 C2         24.4290   19.3630    4.9880 C.3       1 SUB1        0.114
      4 C3         24.4000   19.3790    6.4800 C.2       1 SUB1        0.195
      5 O1         23.3790   19.0220    7.0810 O.2       1 SUB1       -0.395
      6 N2         25.5100   19.7920    7.0840 N.am      1 SUB1       -0.280
      7 C4         25.6650   19.8940    8.5110 C.3       1 SUB1        0.045
      8 C5         27.0900   20.4650    8.7220 C.3       1 SUB1       -0.040
      9 C6         25.5660   18.5900    9.0670 C.3       1 SUB1       -0.040
     10 C7         24.7120   20.8320    9.0850 C.3       1 SUB1       -0.040
     11 N3         23.9030   18.0630    4.4290 N.3       1 SUB1       -0.278
     12 C8         23.8240   18.1050    2.9510 C.3       1 SUB1        0.014
     13 C9         23.0300   19.2800    2.4690 C.3       1 SUB1        0.014
     14 C10        24.7440   16.9360    4.7610 C.3       1 SUB1        0.028
     15 C11        23.8980   15.6800    5.0450 C.3       1 SUB1        0.071
     16 O2         24.6970   14.5980    4.7060 O.3       1 SUB1       -0.390
     17 C12        23.4780   15.5640    6.5210 C.3       1 SUB1       -0.004
     18 C13        22.5800   14.3360    6.8500 C.3       1 SUB1        0.061
     19 C14        22.4480   14.2260    8.3780 C.3       1 SUB1        0.001
     20 C15        21.4650   13.1890    8.7950 C.ar      1 SUB1       -0.041
     21 C16        21.6500   11.8650    8.4710 C.ar      1 SUB1       -0.060
     22 C17        20.7880   10.8820    8.9160 C.ar      1 SUB1       -0.069
     23 C18        19.6860   11.2710    9.6830 C.ar      1 SUB1       -0.069
     24 C19        19.4850   12.6030    9.9980 C.ar      1 SUB1       -0.069
     25 C20        20.3850   13.5700    9.5680 C.ar      1 SUB1       -0.060
     26 C21        21.2240   14.4900    6.2260 C.2       1 SUB1        0.183
     27 O3         20.5460   15.5200    6.3040 O.2       1 SUB1       -0.396
     28 N4         20.7580   13.3900    5.6640 N.am      1 SUB1       -0.271
     29 C22        19.3880   13.2060    5.3480 C.3       1 SUB1        0.101
     30 C23        18.7910   11.8560    5.6960 C.3       1 SUB1        0.095
     31 O4         19.6950   10.7930    5.3580 O.3       1 SUB1       -0.386
     32 C24        17.5520   11.7290    4.8090 C.3       1 SUB1        0.009
     33 C25        17.9040   12.4140    3.5120 C.ar      1 SUB1       -0.036
     34 C26        17.4350   12.3500    2.2350 C.ar      1 SUB1       -0.067
     35 C27        18.0190   13.1800    1.2800 C.ar      1 SUB1       -0.075
     36 C28        19.0380   14.0690    1.5720 C.ar      1 SUB1       -0.075
     37 C29        19.5310   14.1560    2.8620 C.ar      1 SUB1       -0.065
     38 C30        19.0480   13.3900    3.8560 C.ar      1 SUB1       -0.013
     39 C31        22.4420   21.5980    2.6190 C.3       1 SUB1        0.039
     40 C32        22.7620   23.0540    2.9970 C.ar      1 SUB1       -0.001
     41 C33        23.8780   23.7120    2.4450 C.ar      1 SUB1        0.014
     42 N5         24.2560   25.0500    2.6910 N.ar      1 SUB1       -0.304
     43 C34        23.3550   25.6440    3.5760 C.ar      1 SUB1        0.004
     44 C35        22.2270   25.0720    4.1520 C.ar      1 SUB1       -0.040
     45 C36        21.9200   23.7500    3.8660 C.ar      1 SUB1       -0.039
     46 H21        22.4497   20.1536    4.8470 H         1 SUB1        0.047
     47 H22        23.7543   21.3875    4.8936 H         1 SUB1        0.047
     48 H31        25.4511   19.5558    4.6300 H         1 SUB1        0.072
     49 H61        26.2874   20.0483    6.5096 H         1 SUB1        0.186
     50 H81        27.2858   20.5732    9.7990 H         1 SUB1        0.025
     51 H82        27.1669   21.4482    8.2347 H         1 SUB1        0.025
     52 H83        27.8288   19.7789    8.2822 H         1 SUB1        0.025
     53 H91        25.6822   18.6474   10.1593 H         1 SUB1        0.025
     54 H92        26.3571   17.9513    8.6472 H         1 SUB1        0.025
     55 H93        24.5821   18.1619    8.8250 H         1 SUB1        0.025
     56 H101       24.8593   20.8842   10.1738 H         1 SUB1        0.025
     57 H102       23.6881   20.4926    8.8694 H         1 SUB1        0.025
     58 H103       24.8682   21.8283    8.6458 H         1 SUB1        0.025
     59 H121       23.3453   17.1813    2.5937 H         1 SUB1        0.044
     60 H122       24.8429   18.1720    2.5418 H         1 SUB1        0.044
     61 H131       23.1347   19.3278    1.3750 H         1 SUB1        0.044
     62 H132       21.9764   19.1005    2.7290 H         1 SUB1        0.044
     63 H141       25.3364   17.1803    5.6551 H         1 SUB1        0.045
     64 H142       25.4201   16.7311    3.9179 H         1 SUB1        0.045
     65 H151       22.9939   15.6962    4.4186 H         1 SUB1        0.061
     66 H161       24.2197   13.7918    4.8632 H         1 SUB1        0.210
     67 H171       22.9242   16.4750    6.7918 H         1 SUB1        0.032
     68 H172       24.3902   15.4942    7.1318 H         1 SUB1        0.032
     69 H181       23.0530   13.4239    6.4571 H         1 SUB1        0.056
     70 H191       22.1227   15.1992    8.7744 H         1 SUB1        0.045
     71 H192       23.4312   13.9687    8.7988 H         1 SUB1        0.045
     72 H211       22.4940   11.5861    7.8505 H         1 SUB1        0.056
     73 H221       20.9610    9.8388    8.6774 H         1 SUB1        0.060
     74 H231       18.9837   10.5234   10.0336 H         1 SUB1        0.056
     75 H241       18.6204   12.8938   10.5836 H         1 SUB1        0.060
     76 H251       20.2417   14.6106    9.8356 H         1 SUB1        0.056
     77 H281       21.4001   12.6534    5.4516 H         1 SUB1        0.188
     78 H291       18.8437   13.9713    5.9207 H         1 SUB1        0.073
     79 H301       18.5280   11.8072    6.7630 H         1 SUB1        0.066
     80 H311       19.3003    9.9591    5.5845 H         1 SUB1        0.210
     81 H321       16.6902   12.2229    5.2815 H         1 SUB1        0.044
     82 H322       17.3152   10.6697    4.6308 H         1 SUB1        0.044
     83 H341       16.6310   11.6733    1.9692 H         1 SUB1        0.054
     84 H351       17.6575   13.1265    0.2594 H         1 SUB1        0.054
     85 H361       19.4501   14.6972    0.7905 H         1 SUB1        0.054
     86 H371       20.3270   14.8598    3.0768 H         1 SUB1        0.054
     87 H391       21.4800   21.3476    3.0899 H         1 SUB1        0.060
     88 H392       22.3339   21.5663    1.5248 H         1 SUB1        0.060
     89 H411       24.5036   23.1393    1.7700 H         1 SUB1        0.076
     90 H431       23.5593   26.6737    3.8462 H         1 SUB1        0.077
     91 H441       21.5956   25.6513    4.8159 H         1 SUB1        0.069
     92 H451       21.0518   23.2714    4.3044 H         1 SUB1        0.068
@<TRIPOS>BOND
     1    1    2 1  
     2    1   13 1  
     3    1   39 1  
     4    2    3 1  
     5    3    4 1  
     6    3   11 1  
     7    4    5 2  
     8    4    6 am 
     9    6    7 1  
    10    7    8 1  
    11    7    9 1  
    12    7   10 1  
    13   11   12 1  
    14   11   14 1  
    15   12   13 1  
    16   14   15 1  
    17   15   16 1  
    18   15   17 1  
    19   17   18 1  
    20   18   19 1  
    21   18   26 1  
    22   19   20 1  
    23   20   21 ar 
    24   20   25 ar 
    25   21   22 ar 
    26   22   23 ar 
    27   23   24 ar 
    28   24   25 ar 
    29   26   27 2  
    30   26   28 am 
    31   28   29 1  
    32   29   30 1  
    33   29   38 1  
    34   30   31 1  
    35   30   32 1  
    36   32   33 1  
    37   33   34 ar 
    38   33   38 ar 
    39   34   35 ar 
    40   35   36 ar 
    41   36   37 ar 
    42   37   38 ar 
    43   39   40 1  
    44   40   41 ar 
    45   40   45 ar 
    46   41   42 ar 
    47   42   43 ar 
    48   43   44 ar 
    49   44   45 ar 
    50    2   46 1  
    51    2   47 1  
    52    3   48 1  
    53    6   49 1  
    54    8   50 1  
    55    8   51 1  
    56    8   52 1  
    57    9   53 1  
    58    9   54 1  
    59    9   55 1  
    60   10   56 1  
    61   10   57 1  
    62   10   58 1  
    63   12   59 1  
    64   12   60 1  
    65   13   61 1  
    66   13   62 1  
    67   14   63 1  
    68   14   64 1  
    69   15   65 1  
    70   16   66 1  
    71   17   67 1  
    72   17   68 1  
    73   18   69 1  
    74   19   70 1  
    75   19   71 1  
    76   21   72 1  
    77   22   73 1  
    78   23   74 1  
    79   24   75 1  
    80   25   76 1  
    81   28   77 1  
    82   29   78 1  
    83   30   79 1  
    84   31   80 1  
    85   32   81 1  
    86   32   82 1  
    87   34   83 1  
    88   35   84 1  
    89   36   85 1  
    90   37   86 1  
    91   39   87 1  
    92   39   88 1  
    93   41   89 1  
    94   43   90 1  
    95   44   91 1  
    96   45   92 1  
@<TRIPOS>SUBSTRUCTURE
     1 SUB1        1 GROUP

