2i3i_ligand
  -I-interpret- 

 70 73  0  0  0  0  0  0  0  0999 V2000
   84.6490   61.3310   12.9700 O   0  0  0  0  0
   84.0570   61.0430   13.9930 C   0  0  0  0  0
   84.8460   60.4470   15.1870 C   0  0  0  0  0
   86.2510   60.0790   14.8380 N   0  3  0  0  0
   86.3710   58.9560   13.8820 C   0  0  0  0  0
   84.8190   61.3510   16.4370 C   0  0  0  0  0
   82.7510   61.2480   14.1980 N   0  0  0  0  0
   81.5940   60.9910   13.2980 C   0  0  0  0  0
   80.5700   62.0900   13.7100 C   0  0  0  0  0
   80.3690   62.1550   14.9240 O   0  0  0  0  0
   81.9670   60.8170   11.8140 C   0  0  0  0  0
   80.8220   60.6120   10.8070 C   0  0  0  0  0
   79.8020   61.7620   10.6210 C   0  0  0  0  0
   80.0160   63.0610   11.4290 C   0  0  0  0  0
   79.8590   62.9270   12.8930 N   0  0  0  0  0
   78.7100   64.2060   10.9450 S   0  0  0  0  0
   78.5670   65.0050   12.5530 C   0  0  0  0  0
   77.2060   65.7210   12.6910 C   0  0  0  0  0
   79.6490   66.1010   12.7180 C   0  0  0  0  0
   78.7830   63.7860   13.4890 C   0  0  0  0  0
   77.5400   62.8530   13.7060 C   0  0  0  0  0
   77.3280   61.9020   12.9520 O   0  0  0  0  0
   76.7480   63.1890   14.7340 N   0  0  0  0  0
   75.3800   62.7940   15.0410 C   0  0  0  0  0
   74.4960   62.3450   14.0870 C   0  0  0  0  0
   73.2980   62.0660   14.7370 C   0  0  0  0  0
   72.0120   61.5450   14.1270 C   0  0  0  0  0
   73.4410   62.3330   16.0780 N   0  0  0  0  0
   74.7040   62.7850   16.2920 N   0  0  0  0  0
   75.1510   63.1330   17.4540 C   0  0  0  0  0
   74.3230   63.8860   18.3210 C   0  0  0  0  0
   74.7700   64.2680   19.5840 C   0  0  0  0  0
   76.0480   63.9020   19.9960 C   0  0  0  0  0
   76.8760   63.1590   19.1520 C   0  0  0  0  0
   76.4480   62.7700   17.8900 C   0  0  0  0  0
   84.3188   59.5254   15.4335 H   0  0  0  0  0
   86.7064   59.7856   15.7022 H   0  0  0  0  0
   86.6722   60.8952   14.3945 H   0  0  0  0  0
   85.9059   58.0669   14.3077 H   0  0  0  0  0
   85.8704   59.2188   12.9501 H   0  0  0  0  0
   87.4249   58.7580   13.6865 H   0  0  0  0  0
   85.2659   60.8201   17.2775 H   0  0  0  0  0
   85.3851   62.2610   16.2380 H   0  0  0  0  0
   83.7870   61.6084   16.6755 H   0  0  0  0  0
   82.5121   61.6397   15.1090 H   0  0  0  0  0
   81.1305   60.0119   13.4187 H   0  0  0  0  0
   82.5620   59.9049   11.7682 H   0  0  0  0  0
   82.4472   61.7512   11.5229 H   0  0  0  0  0
   80.2439   59.7728   11.1938 H   0  0  0  0  0
   81.3070   60.4964    9.8377 H   0  0  0  0  0
   78.8490   61.3611   10.9662 H   0  0  0  0  0
   79.8860   62.0558    9.5747 H   0  0  0  0  0
   81.0388   63.3740   11.2193 H   0  0  0  0  0
   77.1148   66.4784   11.9125 H   0  0  0  0  0
   76.4016   64.9928   12.5873 H   0  0  0  0  0
   77.1442   66.1955   13.6704 H   0  0  0  0  0
   80.6375   65.6493   12.6351 H   0  0  0  0  0
   79.5250   66.8525   11.9383 H   0  0  0  0  0
   79.5433   66.5698   13.6963 H   0  0  0  0  0
   79.0244   64.2163   14.4609 H   0  0  0  0  0
   77.1718   63.8239   15.4106 H   0  0  0  0  0
   74.6967   62.2296   13.0219 H   0  0  0  0  0
   71.7569   60.5881   14.5824 H   0  0  0  0  0
   71.2097   62.2603   14.3078 H   0  0  0  0  0
   72.1478   61.4132   13.0536 H   0  0  0  0  0
   73.3223   64.1707   17.9960 H   0  0  0  0  0
   74.1247   64.8483   20.2435 H   0  0  0  0  0
   76.4046   64.1969   20.9829 H   0  0  0  0  0
   77.8742   62.8800   19.4894 H   0  0  0  0  0
   77.1044   62.1905   17.2409 H   0  0  0  0  0
  1  2  2  0  0  0
  2  3  1  0  0  0
  2  7  1  0  0  0
  3  4  1  0  0  0
  3  6  1  0  0  0
  4  5  1  0  0  0
  7  8  1  0  0  0
  8  9  1  0  0  0
  8 11  1  0  0  0
  9 10  2  0  0  0
  9 15  1  0  0  0
 11 12  1  0  0  0
 12 13  1  0  0  0
 13 14  1  0  0  0
 14 15  1  0  0  0
 14 16  1  0  0  0
 15 20  1  0  0  0
 16 17  1  0  0  0
 17 18  1  0  0  0
 17 19  1  0  0  0
 17 20  1  0  0  0
 20 21  1  0  0  0
 21 22  2  0  0  0
 21 23  1  0  0  0
 23 24  1  0  0  0
 24 25  2  0  0  0
 24 29  1  0  0  0
 25 26  1  0  0  0
 26 27  1  0  0  0
 26 28  2  0  0  0
 28 29  1  0  0  0
 29 30  1  0  0  0
 30 31  4  0  0  0
 30 35  4  0  0  0
 31 32  4  0  0  0
 32 33  4  0  0  0
 33 34  4  0  0  0
 34 35  4  0  0  0
  3 36  1  0  0  0
  4 37  1  0  0  0
  4 38  1  0  0  0
  5 39  1  0  0  0
  5 40  1  0  0  0
  5 41  1  0  0  0
  6 42  1  0  0  0
  6 43  1  0  0  0
  6 44  1  0  0  0
  7 45  1  0  0  0
  8 46  1  0  0  0
 11 47  1  0  0  0
 11 48  1  0  0  0
 12 49  1  0  0  0
 12 50  1  0  0  0
 13 51  1  0  0  0
 13 52  1  0  0  0
 14 53  1  0  0  0
 18 54  1  0  0  0
 18 55  1  0  0  0
 18 56  1  0  0  0
 19 57  1  0  0  0
 19 58  1  0  0  0
 19 59  1  0  0  0
 20 60  1  0  0  0
 23 61  1  0  0  0
 25 62  1  0  0  0
 27 63  1  0  0  0
 27 64  1  0  0  0
 27 65  1  0  0  0
 31 66  1  0  0  0
 32 67  1  0  0  0
 33 68  1  0  0  0
 34 69  1  0  0  0
 35 70  1  0  0  0
M  END
$$$$
