### 
### Created by X-TOOL on Sun Jun  3 11:29:33 2007
### 

@<TRIPOS>MOLECULE
2i3i_ligand
   70    73     1     0     0
SMALL
GAST_HUCK


@<TRIPOS>ATOM
      1 O6         84.6490   61.3310   12.9700 O.2       1 SUB1       -0.391
      2 C5         84.0570   61.0430   13.9930 C.2       1 SUB1        0.227
      3 C3         84.8460   60.4470   15.1870 C.3       1 SUB1        0.064
      4 N2         86.2510   60.0790   14.8380 N.4       1 SUB1        0.244
      5 C1         86.3710   58.9560   13.8820 C.3       1 SUB1       -0.043
      6 C4         84.8190   61.3510   16.4370 C.3       1 SUB1       -0.004
      7 N7         82.7510   61.2480   14.1980 N.am      1 SUB1       -0.261
      8 C8         81.5940   60.9910   13.2980 C.3       1 SUB1        0.131
      9 C9         80.5700   62.0900   13.7100 C.2       1 SUB1        0.207
     10 O15        80.3690   62.1550   14.9240 O.2       1 SUB1       -0.394
     11 C14        81.9670   60.8170   11.8140 C.3       1 SUB1       -0.012
     12 C13        80.8220   60.6120   10.8070 C.3       1 SUB1       -0.046
     13 C12        79.8020   61.7620   10.6210 C.3       1 SUB1       -0.020
     14 C11        80.0160   63.0610   11.4290 C.3       1 SUB1        0.094
     15 N10        79.8590   62.9270   12.8930 N.am      1 SUB1       -0.235
     16 S16        78.7100   64.2060   10.9450 S.3       1 SUB1       -0.122
     17 C17        78.5670   65.0050   12.5530 C.3       1 SUB1        0.054
     18 C19        77.2060   65.7210   12.6910 C.3       1 SUB1       -0.046
     19 C20        79.6490   66.1010   12.7180 C.3       1 SUB1       -0.046
     20 C18        78.7830   63.7860   13.4890 C.3       1 SUB1        0.155
     21 C21        77.5400   62.8530   13.7060 C.2       1 SUB1        0.236
     22 O22        77.3280   61.9020   12.9520 O.2       1 SUB1       -0.380
     23 N23        76.7480   63.1890   14.7340 N.am      1 SUB1       -0.202
     24 C24        75.3800   62.7940   15.0410 C.2       1 SUB1        0.194
     25 C25        74.4960   62.3450   14.0870 C.2       1 SUB1       -0.028
     26 C26        73.2980   62.0660   14.7370 C.2       1 SUB1       -0.019
     27 C29        72.0120   61.5450   14.1270 C.3       1 SUB1       -0.033
     28 N27        73.4410   62.3330   16.0780 N.2       1 SUB1       -0.243
     29 N28        74.7040   62.7850   16.2920 N.pl3     1 SUB1       -0.153
     30 C30        75.1510   63.1330   17.4540 C.ar      1 SUB1        0.104
     31 C31        74.3230   63.8860   18.3210 C.ar      1 SUB1       -0.029
     32 C32        74.7700   64.2680   19.5840 C.ar      1 SUB1       -0.067
     33 C33        76.0480   63.9020   19.9960 C.ar      1 SUB1       -0.070
     34 C34        76.8760   63.1590   19.1520 C.ar      1 SUB1       -0.067
     35 C35        76.4480   62.7700   17.8900 C.ar      1 SUB1       -0.029
     36 H          84.3188   59.5254   15.4335 H         1 SUB1        0.110
     37 H          86.7064   59.7856   15.7022 H         1 SUB1        0.203
     38 H          86.6722   60.8952   14.3945 H         1 SUB1        0.203
     39 H          85.9059   58.0669   14.3077 H         1 SUB1        0.078
     40 H          85.8704   59.2188   12.9501 H         1 SUB1        0.078
     41 H          87.4249   58.7580   13.6865 H         1 SUB1        0.078
     42 H          85.2659   60.8201   17.2775 H         1 SUB1        0.031
     43 H          85.3851   62.2610   16.2380 H         1 SUB1        0.031
     44 H          83.7870   61.6084   16.6755 H         1 SUB1        0.031
     45 H          82.5121   61.6397   15.1090 H         1 SUB1        0.188
     46 H          81.1305   60.0119   13.4187 H         1 SUB1        0.080
     47 H          82.5620   59.9049   11.7682 H         1 SUB1        0.031
     48 H          82.4472   61.7512   11.5229 H         1 SUB1        0.031
     49 H          80.2439   59.7728   11.1938 H         1 SUB1        0.027
     50 H          81.3070   60.4964    9.8377 H         1 SUB1        0.027
     51 H          78.8490   61.3611   10.9662 H         1 SUB1        0.030
     52 H          79.8860   62.0558    9.5747 H         1 SUB1        0.030
     53 H          81.0388   63.3740   11.2193 H         1 SUB1        0.068
     54 H          77.1148   66.4784   11.9125 H         1 SUB1        0.024
     55 H          76.4016   64.9928   12.5873 H         1 SUB1        0.024
     56 H          77.1442   66.1955   13.6704 H         1 SUB1        0.024
     57 H          80.6375   65.6493   12.6351 H         1 SUB1        0.024
     58 H          79.5250   66.8525   11.9383 H         1 SUB1        0.024
     59 H          79.5433   66.5698   13.6963 H         1 SUB1        0.024
     60 H          79.0244   64.2163   14.4609 H         1 SUB1        0.082
     61 H          77.1718   63.8239   15.4106 H         1 SUB1        0.234
     62 H          74.6967   62.2296   13.0219 H         1 SUB1        0.013
     63 H          71.7569   60.5881   14.5824 H         1 SUB1        0.038
     64 H          71.2097   62.2603   14.3078 H         1 SUB1        0.038
     65 H          72.1478   61.4132   13.0536 H         1 SUB1        0.038
     66 H          73.3223   64.1707   17.9960 H         1 SUB1        0.057
     67 H          74.1247   64.8483   20.2435 H         1 SUB1        0.060
     68 H          76.4046   64.1969   20.9829 H         1 SUB1        0.055
     69 H          77.8742   62.8800   19.4894 H         1 SUB1        0.060
     70 H          77.1044   62.1905   17.2409 H         1 SUB1        0.057
@<TRIPOS>BOND
     1    1    2 2  
     2    2    3 1  
     3    2    7 am 
     4    3    4 1  
     5    3    6 1  
     6    4    5 1  
     7    7    8 1  
     8    8    9 1  
     9    8   11 1  
    10    9   10 2  
    11    9   15 am 
    12   11   12 1  
    13   12   13 1  
    14   13   14 1  
    15   14   15 1  
    16   14   16 1  
    17   15   20 1  
    18   16   17 1  
    19   17   18 1  
    20   17   19 1  
    21   17   20 1  
    22   20   21 1  
    23   21   22 2  
    24   21   23 am 
    25   23   24 1  
    26   24   25 2  
    27   24   29 1  
    28   25   26 1  
    29   26   27 1  
    30   26   28 2  
    31   28   29 1  
    32   29   30 1  
    33   30   31 ar 
    34   30   35 ar 
    35   31   32 ar 
    36   32   33 ar 
    37   33   34 ar 
    38   34   35 ar 
    39    3   36 1  
    40    4   37 1  
    41    4   38 1  
    42    5   39 1  
    43    5   40 1  
    44    5   41 1  
    45    6   42 1  
    46    6   43 1  
    47    6   44 1  
    48    7   45 1  
    49    8   46 1  
    50   11   47 1  
    51   11   48 1  
    52   12   49 1  
    53   12   50 1  
    54   13   51 1  
    55   13   52 1  
    56   14   53 1  
    57   18   54 1  
    58   18   55 1  
    59   18   56 1  
    60   19   57 1  
    61   19   58 1  
    62   19   59 1  
    63   20   60 1  
    64   23   61 1  
    65   25   62 1  
    66   27   63 1  
    67   27   64 1  
    68   27   65 1  
    69   31   66 1  
    70   32   67 1  
    71   33   68 1  
    72   34   69 1  
    73   35   70 1  
@<TRIPOS>SUBSTRUCTURE
     1 SUB1        1 GROUP

