### 
### Created by X-TOOL on Mon Oct 24 22:27:44 2005
### 

@<TRIPOS>MOLECULE
1mfa_ligand
   67    69     1     0     0
SMALL
GAST_HUCK


@<TRIPOS>ATOM
      1 C1         10.7060   -8.9050   64.6760 C.3       1 SUB1        0.189
      2 C2         11.5500   -8.1390   65.6610 C.3       1 SUB1        0.134
      3 C3         11.6750   -8.8030   67.0060 C.3       1 SUB1        0.114
      4 C4         10.2940   -9.2450   67.4840 C.3       1 SUB1        0.112
      5 C5          9.6710  -10.2030   66.4400 C.3       1 SUB1        0.113
      6 C6          8.3200  -10.7980   66.8990 C.3       1 SUB1        0.073
      7 O2         12.8480   -8.0600   65.1630 O.3       1 SUB1       -0.384
      8 O3         12.2400   -7.8490   67.8820 O.3       1 SUB1       -0.386
      9 O4          9.4940   -8.0750   67.6350 O.3       1 SUB1       -0.387
     10 O5          9.4960   -9.4460   65.2230 O.3       1 SUB1       -0.340
     11 O6          8.0070  -11.9680   66.1500 O.3       1 SUB1       -0.392
     12 C1         10.1940  -11.6420   63.1380 C.3       1 SUB1        0.188
     13 C2         11.0770  -10.4460   62.8910 C.3       1 SUB1        0.141
     14 C3         12.2940  -10.8070   62.0500 C.3       1 SUB1        0.121
     15 C4         13.0420  -12.0170   62.6330 C.3       1 SUB1        0.112
     16 C5         12.0610  -13.1800   62.8670 C.3       1 SUB1        0.113
     17 C6         12.6430  -14.4110   63.5740 C.3       1 SUB1        0.073
     18 C7          8.4880  -12.8950   61.9170 C.3       1 SUB1        0.040
     19 O1          9.6110  -12.0020   61.8990 O.3       1 SUB1       -0.352
     20 O2         11.5170   -9.9660   64.1460 O.3       1 SUB1       -0.338
     21 O3         13.1770   -9.6680   62.0310 O.3       1 SUB1       -0.340
     22 O4         14.0830  -12.4220   61.7600 O.3       1 SUB1       -0.387
     23 O5         10.9850  -12.7090   63.6700 O.3       1 SUB1       -0.340
     24 O6         13.1760  -14.0250   64.8430 O.3       1 SUB1       -0.392
     25 C1         13.7270   -9.3240   60.7320 C.3       1 SUB1        0.186
     26 C2         14.8940   -8.3880   60.9610 C.3       1 SUB1        0.108
     27 C3         14.3860   -7.0230   61.4200 C.3       1 SUB1        0.007
     28 C4         13.3880   -6.5130   60.3760 C.3       1 SUB1        0.084
     29 C5         12.2170   -7.4920   60.2770 C.3       1 SUB1        0.085
     30 C6         11.1940   -7.0300   59.2240 C.3       1 SUB1       -0.036
     31 O2         15.7160   -8.9730   61.9510 O.3       1 SUB1       -0.387
     32 O4         14.0260   -6.3780   59.1000 O.3       1 SUB1       -0.389
     33 O5         12.7360   -8.7700   59.8900 O.3       1 SUB1       -0.343
     34 H11        10.4279   -8.2223   63.8596 H         1 SUB1        0.094
     35 H21        11.1232   -7.1332   65.7879 H         1 SUB1        0.067
     36 H31        12.3337   -9.6812   66.9362 H         1 SUB1        0.065
     37 H41        10.3789   -9.7638   68.4502 H         1 SUB1        0.065
     38 H51        10.3690  -11.0333   66.2574 H         1 SUB1        0.065
     39 H61         7.5267  -10.0507   66.7502 H         1 SUB1        0.058
     40 H62         8.3834  -11.0581   67.9659 H         1 SUB1        0.058
     41 H71        13.1963   -8.9365   65.0495 H         1 SUB1        0.210
     42 H81        11.6706   -7.0901   67.9318 H         1 SUB1        0.210
     43 H91         9.8964   -7.4978   68.2732 H         1 SUB1        0.210
     44 H111        7.1751  -12.3187   66.4456 H         1 SUB1        0.209
     45 H121        9.4026  -11.3838   63.8570 H         1 SUB1        0.094
     46 H131       10.4986   -9.6668   62.3730 H         1 SUB1        0.068
     47 H141       11.9707  -11.0439   61.0256 H         1 SUB1        0.065
     48 H151       13.4839  -11.7276   63.5978 H         1 SUB1        0.065
     49 H161       11.6771  -13.4987   61.8867 H         1 SUB1        0.065
     50 H171       13.4438  -14.8439   62.9565 H         1 SUB1        0.058
     51 H172       11.8494  -15.1582   63.7218 H         1 SUB1        0.058
     52 H181        8.1490  -13.0786   60.8868 H         1 SUB1        0.052
     53 H182        7.6698  -12.4435   62.4972 H         1 SUB1        0.052
     54 H183        8.7843  -13.8475   62.3807 H         1 SUB1        0.052
     55 H221       14.6955  -11.7049   61.6452 H         1 SUB1        0.210
     56 H241       12.4838  -13.6514   65.3755 H         1 SUB1        0.209
     57 H251       14.1031  -10.2394   60.2519 H         1 SUB1        0.094
     58 H261       15.4647   -8.2669   60.0285 H         1 SUB1        0.064
     59 H271       15.2283   -6.3207   61.5053 H         1 SUB1        0.032
     60 H272       13.8883   -7.1190   62.3963 H         1 SUB1        0.032
     61 H281       13.0096   -5.5294   60.6910 H         1 SUB1        0.062
     62 H291       11.7211   -7.5700   61.2558 H         1 SUB1        0.062
     63 H301       10.3658   -7.7523   59.1759 H         1 SUB1        0.025
     64 H302       11.6830   -6.9668   58.2407 H         1 SUB1        0.025
     65 H303       10.8020   -6.0408   59.5028 H         1 SUB1        0.025
     66 H311       15.2159   -9.0843   62.7510 H         1 SUB1        0.210
     67 H321       14.3597   -7.2233   58.8230 H         1 SUB1        0.210
@<TRIPOS>BOND
     1    1   10 1  
     2    1    2 1  
     3    2    7 1  
     4    2    3 1  
     5    3    8 1  
     6    3    4 1  
     7    4    9 1  
     8    5    4 1  
     9   10    5 1  
    10    5    6 1  
    11    6   11 1  
    12   12   23 1  
    13   12   19 1  
    14   13   12 1  
    15   13   20 1  
    16   14   13 1  
    17   21   14 1  
    18   14   15 1  
    19   15   22 1  
    20   15   16 1  
    21   16   23 1  
    22   16   17 1  
    23   17   24 1  
    24   19   18 1  
    25   25   33 1  
    26   25   26 1  
    27   26   31 1  
    28   26   27 1  
    29   27   28 1  
    30   28   32 1  
    31   29   28 1  
    32   33   29 1  
    33   29   30 1  
    34   20    1 1  
    35   21   25 1  
    36    1   34 1  
    37    2   35 1  
    38    3   36 1  
    39    4   37 1  
    40    5   38 1  
    41    6   39 1  
    42    6   40 1  
    43    7   41 1  
    44    8   42 1  
    45    9   43 1  
    46   11   44 1  
    47   12   45 1  
    48   13   46 1  
    49   14   47 1  
    50   15   48 1  
    51   16   49 1  
    52   17   50 1  
    53   17   51 1  
    54   18   52 1  
    55   18   53 1  
    56   18   54 1  
    57   22   55 1  
    58   24   56 1  
    59   25   57 1  
    60   26   58 1  
    61   27   59 1  
    62   27   60 1  
    63   28   61 1  
    64   29   62 1  
    65   30   63 1  
    66   30   64 1  
    67   30   65 1  
    68   31   66 1  
    69   32   67 1  
@<TRIPOS>SUBSTRUCTURE
     1 SUB1        1 GROUP

