### 
### Created by X-TOOL on Mon Oct 24 22:50:44 2005
### 

@<TRIPOS>MOLECULE
1yc4_ligand
   34    36     1     0     0
SMALL
GAST_HUCK


@<TRIPOS>ATOM
      1 OAQ        32.7690   32.2390   -3.8380 O.3       1 SUB1       -0.336
      2 CAF        33.9300   32.1240   -3.1370 C.ar      1 SUB1        0.087
      3 CAJ        33.8620   31.7060   -1.8070 C.ar      1 SUB1       -0.008
      4 CAL        35.0320   31.5290   -1.0690 C.ar      1 SUB1        0.084
      5 OAR        34.9460   31.2410    0.2620 O.3       1 SUB1       -0.338
      6 CAM        36.2710   31.7420   -1.6720 C.ar      1 SUB1       -0.023
      7 CAS        37.5870   31.3210   -1.0050 C.3       1 SUB1       -0.028
      8 CAT        37.7730   29.8000   -1.0560 C.3       1 SUB1       -0.058
      9 CAG        36.3180   32.2020   -2.9890 C.ar      1 SUB1       -0.065
     10 CAC        35.1570   32.3960   -3.7360 C.ar      1 SUB1        0.023
     11 CAB        35.2030   32.8350   -5.0630 C.2       1 SUB1        0.081
     12 NAE        34.8650   32.1240   -6.1400 N.pl3     1 SUB1       -0.222
     13 NAI        35.0220   32.7870   -7.1700 N.2       1 SUB1       -0.224
     14 CAK        35.4930   33.9940   -6.8710 C.2       1 SUB1       -0.002
     15 CAA        35.6180   34.0750   -5.5490 C.2       1 SUB1       -0.008
     16 CAD        35.9810   35.2120   -4.8340 C.2       1 SUB1        0.005
     17 CAP        36.6170   36.2670   -5.3390 C.2       1 SUB1        0.035
     18 NAN        36.7480   37.1850   -4.3850 N.pl3     1 SUB1       -0.268
     19 CAO        36.1990   36.7030   -3.2730 C.2       1 SUB1        0.094
     20 NAH        35.7300   35.4900   -3.5570 N.2       1 SUB1       -0.326
     21 H11        32.9614   32.5297   -4.7217 H         1 SUB1        0.248
     22 H31        32.8984   31.5187   -1.3471 H         1 SUB1        0.045
     23 H51        35.8203   31.1503    0.6224 H         1 SUB1        0.247
     24 H71        37.5767   31.6461    0.0458 H         1 SUB1        0.038
     25 H72        38.4253   31.8027   -1.5296 H         1 SUB1        0.038
     26 H81        38.7229   29.5303   -0.5712 H         1 SUB1        0.025
     27 H82        37.7891   29.4675   -2.1044 H         1 SUB1        0.025
     28 H83        36.9405   29.3109   -0.5290 H         1 SUB1        0.025
     29 H91        37.2800   32.4134   -3.4417 H         1 SUB1        0.050
     30 H121       34.5199   31.1538   -6.1158 H         1 SUB1        0.251
     31 H141       35.7346   34.7802   -7.5848 H         1 SUB1        0.065
     32 H171       36.9716   36.3628   -6.3642 H         1 SUB1        0.082
     33 H181       37.1957   38.1068   -4.4890 H         1 SUB1        0.240
     34 H191       36.1436   37.2072   -2.3094 H         1 SUB1        0.122
@<TRIPOS>BOND
     1    1    2 1  
     2    2    3 ar 
     3    2   10 ar 
     4    3    4 ar 
     5    4    5 1  
     6    4    6 ar 
     7    6    7 1  
     8    6    9 ar 
     9    7    8 1  
    10    9   10 ar 
    11   10   11 1  
    12   11   12 1  
    13   11   15 2  
    14   12   13 1  
    15   13   14 2  
    16   14   15 1  
    17   15   16 1  
    18   16   17 2  
    19   16   20 1  
    20   17   18 1  
    21   18   19 1  
    22   19   20 2  
    23    1   21 1  
    24    3   22 1  
    25    5   23 1  
    26    7   24 1  
    27    7   25 1  
    28    8   26 1  
    29    8   27 1  
    30    8   28 1  
    31    9   29 1  
    32   12   30 1  
    33   14   31 1  
    34   17   32 1  
    35   18   33 1  
    36   19   34 1  
@<TRIPOS>SUBSTRUCTURE
     1 SUB1        1 GROUP

