1g7f_ligand
  -I-interpret- 

 69 70  0  0  0  0  0  0  0  0999 V2000
   14.4178   16.3178    9.4431 H   0  0  0  0  0
   12.2966   16.5916    8.2201 H   0  0  0  0  0
   16.6310   16.9120   13.4640 C   0  0  0  0  0
   17.1120   17.6660   14.4430 O   0  5  0  0  0
   17.2430   16.1470   12.7730 O   0  0  0  0  0
   13.6200   16.8450   11.3700 C   0  0  0  0  0
   13.5290   16.6220    9.9840 C   0  0  0  0  0
   12.3420   16.7780    9.2870 C   0  0  0  0  0
   11.1940   17.1850    9.9980 C   0  0  0  0  0
   11.2680   17.4300   11.3780 C   0  0  0  0  0
   12.4780   17.2570   12.0860 C   0  0  0  0  0
   15.1150   17.1000   13.2920 C   0  0  0  0  0
    9.9130   17.3420    9.2260 C   0  0  0  0  0
    9.2290   18.7380    9.4000 C   0  0  0  0  0
   14.8490   16.6270   11.9350 O   0  0  0  0  0
   14.4610   16.2480   14.3920 C   0  0  0  0  0
   14.3100   16.6620   15.5300 O   0  0  0  0  0
   14.1010   15.0110   14.0240 O   0  5  0  0  0
    7.9790   18.6660    8.6490 N   0  0  0  0  0
   10.0600   19.8290    8.6770 C   0  0  0  0  0
    6.9170   19.3130    9.1300 C   0  0  0  0  0
   10.0390   19.7240    7.3360 N   0  0  0  0  0
   10.8760   20.4850    9.3260 O   0  0  0  0  0
   10.9840   20.3800    6.4460 C   0  0  0  0  0
   11.3500   19.4360    5.2790 C   0  0  0  0  0
   11.5130   17.9500    5.7330 C   0  0  0  0  0
   11.7960   17.0300    4.5220 C   0  0  0  0  0
   13.2900   16.7550    4.4290 C   0  0  0  0  0
    7.0490   20.2070   10.0260 O   0  0  0  0  0
    5.7550   19.0040    8.5570 N   0  0  0  0  0
    4.5540   19.7560    8.9600 C   0  0  0  0  0
    4.4420   21.0060    8.0080 C   0  0  0  0  0
    3.3390   18.8360    8.8500 C   0  0  0  0  0
    3.6810   17.5840    8.5010 O   0  5  0  0  0
    2.2300   19.1760    9.1390 O   0  0  0  0  0
    4.1860   20.5930    6.5620 C   0  0  0  0  0
    5.2330   20.1830    5.7240 C   0  0  0  0  0
    4.9830   19.7950    4.3870 C   0  0  0  0  0
    3.6800   19.8200    3.8940 C   0  0  0  0  0
    2.6250   20.2300    4.7190 C   0  0  0  0  0
    2.8770   20.6170    6.0510 C   0  0  0  0  0
   10.3817   17.7575   11.9094 H   0  0  0  0  0
   12.5271   17.4367   13.1539 H   0  0  0  0  0
   14.8125   18.1522   13.3982 H   0  0  0  0  0
    9.2087   16.5678    9.5644 H   0  0  0  0  0
   10.1331   17.1960    8.1582 H   0  0  0  0  0
    9.0718   18.9813   10.4612 H   0  0  0  0  0
    7.9209   18.1456    7.7971 H   0  0  0  0  0
    9.3260   19.1570    6.9235 H   0  0  0  0  0
   11.8949   20.6369    7.0066 H   0  0  0  0  0
   10.5297   21.2976    6.0440 H   0  0  0  0  0
   12.2985   19.7747    4.8367 H   0  0  0  0  0
   10.5535   19.4872    4.5221 H   0  0  0  0  0
   10.5868   17.6207    6.2266 H   0  0  0  0  0
   12.3512   17.8800    6.4419 H   0  0  0  0  0
   11.4564   17.5238    3.5996 H   0  0  0  0  0
   11.2561   16.0802    4.6495 H   0  0  0  0  0
   13.4894   16.1008    3.5675 H   0  0  0  0  0
   13.6300   16.2609    5.3511 H   0  0  0  0  0
   13.8304   17.7045    4.3011 H   0  0  0  0  0
    5.6992   18.2794    7.8701 H   0  0  0  0  0
    4.6538   20.0977   10.0008 H   0  0  0  0  0
    5.3821   21.5752    8.0550 H   0  0  0  0  0
    3.6113   21.6410    8.3497 H   0  0  0  0  0
    6.2473   20.1632    6.1059 H   0  0  0  0  0
    5.8009   19.4798    3.7492 H   0  0  0  0  0
    3.4826   19.5218    2.8707 H   0  0  0  0  0
    1.6125   20.2498    4.3324 H   0  0  0  0  0
    2.0567   20.9348    6.6844 H   0  0  0  0  0
  3 12  1  0  0  0
  3  5  2  0  0  0
  3  4  1  0  0  0
 12 16  1  0  0  0
 12 15  1  0  0  0
 15  6  1  0  0  0
  6 11  4  0  0  0
  6  7  4  0  0  0
  7  8  4  0  0  0
  8  9  4  0  0  0
  9 13  1  0  0  0
  9 10  4  0  0  0
 10 11  4  0  0  0
 13 14  1  0  0  0
 14 19  1  0  0  0
 14 20  1  0  0  0
 20 22  1  0  0  0
 20 23  2  0  0  0
 22 24  1  0  0  0
 24 25  1  0  0  0
 25 26  1  0  0  0
 26 27  1  0  0  0
 27 28  1  0  0  0
 19 21  1  0  0  0
 21 30  1  0  0  0
 21 29  2  0  0  0
 30 31  1  0  0  0
 31 33  1  0  0  0
 31 32  1  0  0  0
 32 36  1  0  0  0
 36 41  4  0  0  0
 36 37  4  0  0  0
 37 38  4  0  0  0
 38 39  4  0  0  0
 39 40  4  0  0  0
 40 41  4  0  0  0
 33 35  2  0  0  0
 33 34  1  0  0  0
 16 18  1  0  0  0
 16 17  2  0  0  0
  7  1  1  0  0  0
  8  2  1  0  0  0
 10 42  1  0  0  0
 11 43  1  0  0  0
 12 44  1  0  0  0
 13 45  1  0  0  0
 13 46  1  0  0  0
 14 47  1  0  0  0
 19 48  1  0  0  0
 22 49  1  0  0  0
 24 50  1  0  0  0
 24 51  1  0  0  0
 25 52  1  0  0  0
 25 53  1  0  0  0
 26 54  1  0  0  0
 26 55  1  0  0  0
 27 56  1  0  0  0
 27 57  1  0  0  0
 28 58  1  0  0  0
 28 59  1  0  0  0
 28 60  1  0  0  0
 30 61  1  0  0  0
 31 62  1  0  0  0
 32 63  1  0  0  0
 32 64  1  0  0  0
 37 65  1  0  0  0
 38 66  1  0  0  0
 39 67  1  0  0  0
 40 68  1  0  0  0
 41 69  1  0  0  0
M  END
$$$$
