### 
### Created by X-TOOL on Mon Oct 24 22:41:53 2005
### 

@<TRIPOS>MOLECULE
1g7f_ligand
   69    70     1     0     0
SMALL
GAST_HUCK


@<TRIPOS>ATOM
      1 H71        14.4178   16.3178    9.4431 H         1 SUB1        0.053
      2 H81        12.2966   16.5916    8.2201 H         1 SUB1        0.053
      3 C1         16.6310   16.9120   13.4640 C.2       1 SUB1        0.075
      4 O2         17.1120   17.6660   14.4430 O.co2     1 SUB1       -0.569
      5 O3         17.2430   16.1470   12.7730 O.co2     1 SUB1       -0.569
      6 C4         13.6200   16.8450   11.3700 C.ar      1 SUB1        0.098
      7 C5         13.5290   16.6220    9.9840 C.ar      1 SUB1       -0.038
      8 C6         12.3420   16.7780    9.2870 C.ar      1 SUB1       -0.068
      9 C7         11.1940   17.1850    9.9980 C.ar      1 SUB1       -0.049
     10 C8         11.2680   17.4300   11.3780 C.ar      1 SUB1       -0.068
     11 C9         12.4780   17.2570   12.0860 C.ar      1 SUB1       -0.038
     12 C10        15.1150   17.1000   13.2920 C.3       1 SUB1        0.160
     13 C11         9.9130   17.3420    9.2260 C.3       1 SUB1        0.016
     14 C12         9.2290   18.7380    9.4000 C.3       1 SUB1        0.139
     15 O13        14.8490   16.6270   11.9350 O.3       1 SUB1       -0.276
     16 C14        14.4610   16.2480   14.3920 C.2       1 SUB1        0.075
     17 O15        14.3100   16.6620   15.5300 O.co2     1 SUB1       -0.569
     18 O16        14.1010   15.0110   14.0240 O.co2     1 SUB1       -0.569
     19 N17         7.9790   18.6660    8.6490 N.am      1 SUB1       -0.250
     20 C18        10.0600   19.8290    8.6770 C.2       1 SUB1        0.203
     21 C19         6.9170   19.3130    9.1300 C.2       1 SUB1        0.263
     22 N20        10.0390   19.7240    7.3360 N.am      1 SUB1       -0.285
     23 O21        10.8760   20.4850    9.3260 O.2       1 SUB1       -0.394
     24 C22        10.9840   20.3800    6.4460 C.3       1 SUB1        0.031
     25 C23        11.3500   19.4360    5.2790 C.3       1 SUB1       -0.033
     26 C24        11.5130   17.9500    5.7330 C.3       1 SUB1       -0.052
     27 C25        11.7960   17.0300    4.5220 C.3       1 SUB1       -0.056
     28 C26        13.2900   16.7550    4.4290 C.3       1 SUB1       -0.065
     29 O27         7.0490   20.2070   10.0260 O.2       1 SUB1       -0.400
     30 N28         5.7550   19.0040    8.5570 N.am      1 SUB1       -0.254
     31 C29         4.5540   19.7560    8.9600 C.3       1 SUB1        0.091
     32 C30         4.4420   21.0060    8.0080 C.3       1 SUB1        0.015
     33 C31         3.3390   18.8360    8.8500 C.2       1 SUB1        0.055
     34 O32         3.6810   17.5840    8.5010 O.co2     1 SUB1       -0.564
     35 O33         2.2300   19.1760    9.1390 O.co2     1 SUB1       -0.564
     36 C34         4.1860   20.5930    6.5620 C.ar      1 SUB1       -0.038
     37 C35         5.2330   20.1830    5.7240 C.ar      1 SUB1       -0.060
     38 C36         4.9830   19.7950    4.3870 C.ar      1 SUB1       -0.069
     39 C37         3.6800   19.8200    3.8940 C.ar      1 SUB1       -0.069
     40 C38         2.6250   20.2300    4.7190 C.ar      1 SUB1       -0.069
     41 C39         2.8770   20.6170    6.0510 C.ar      1 SUB1       -0.060
     42 H101       10.3817   17.7575   11.9094 H         1 SUB1        0.053
     43 H111       12.5271   17.4367   13.1539 H         1 SUB1        0.053
     44 H121       14.8125   18.1522   13.3982 H         1 SUB1        0.130
     45 H131        9.2087   16.5678    9.5644 H         1 SUB1        0.045
     46 H132       10.1331   17.1960    8.1582 H         1 SUB1        0.045
     47 H141        9.0718   18.9813   10.4612 H         1 SUB1        0.082
     48 H191        7.9209   18.1456    7.7971 H         1 SUB1        0.188
     49 H221        9.3260   19.1570    6.9235 H         1 SUB1        0.185
     50 H241       11.8949   20.6369    7.0066 H         1 SUB1        0.052
     51 H242       10.5297   21.2976    6.0440 H         1 SUB1        0.052
     52 H251       12.2985   19.7747    4.8367 H         1 SUB1        0.029
     53 H252       10.5535   19.4872    4.5221 H         1 SUB1        0.029
     54 H261       10.5868   17.6207    6.2266 H         1 SUB1        0.027
     55 H262       12.3512   17.8800    6.4419 H         1 SUB1        0.027
     56 H271       11.4564   17.5238    3.5996 H         1 SUB1        0.026
     57 H272       11.2561   16.0802    4.6495 H         1 SUB1        0.026
     58 H281       13.4894   16.1008    3.5675 H         1 SUB1        0.023
     59 H282       13.6300   16.2609    5.3511 H         1 SUB1        0.023
     60 H283       13.8304   17.7045    4.3011 H         1 SUB1        0.023
     61 H301        5.6992   18.2794    7.8701 H         1 SUB1        0.189
     62 H311        4.6538   20.0977   10.0008 H         1 SUB1        0.080
     63 H321        5.3821   21.5752    8.0550 H         1 SUB1        0.048
     64 H322        3.6113   21.6410    8.3497 H         1 SUB1        0.048
     65 H371        6.2473   20.1632    6.1059 H         1 SUB1        0.056
     66 H381        5.8009   19.4798    3.7492 H         1 SUB1        0.060
     67 H391        3.4826   19.5218    2.8707 H         1 SUB1        0.056
     68 H401        1.6125   20.2498    4.3324 H         1 SUB1        0.060
     69 H411        2.0567   20.9348    6.6844 H         1 SUB1        0.056
@<TRIPOS>BOND
     1    3   12 1  
     2    3    5 2  
     3    3    4 2  
     4   12   16 1  
     5   12   15 1  
     6   15    6 1  
     7    6   11 ar 
     8    6    7 ar 
     9    7    8 ar 
    10    8    9 ar 
    11    9   13 1  
    12    9   10 ar 
    13   10   11 ar 
    14   13   14 1  
    15   14   19 1  
    16   14   20 1  
    17   20   22 am 
    18   20   23 2  
    19   22   24 1  
    20   24   25 1  
    21   25   26 1  
    22   26   27 1  
    23   27   28 1  
    24   19   21 am 
    25   21   30 am 
    26   21   29 2  
    27   30   31 1  
    28   31   33 1  
    29   31   32 1  
    30   32   36 1  
    31   36   41 ar 
    32   36   37 ar 
    33   37   38 ar 
    34   38   39 ar 
    35   39   40 ar 
    36   40   41 ar 
    37   33   35 2  
    38   33   34 2  
    39   16   18 2  
    40   16   17 2  
    41    7    1 1  
    42    8    2 1  
    43   10   42 1  
    44   11   43 1  
    45   12   44 1  
    46   13   45 1  
    47   13   46 1  
    48   14   47 1  
    49   19   48 1  
    50   22   49 1  
    51   24   50 1  
    52   24   51 1  
    53   25   52 1  
    54   25   53 1  
    55   26   54 1  
    56   26   55 1  
    57   27   56 1  
    58   27   57 1  
    59   28   58 1  
    60   28   59 1  
    61   28   60 1  
    62   30   61 1  
    63   31   62 1  
    64   32   63 1  
    65   32   64 1  
    66   37   65 1  
    67   38   66 1  
    68   39   67 1  
    69   40   68 1  
    70   41   69 1  
@<TRIPOS>SUBSTRUCTURE
     1 SUB1        1 GROUP

