### 
### Created by X-TOOL on Tue Oct 25 00:06:36 2005
### 

@<TRIPOS>MOLECULE
1msn_ligand
   78    81     1     0     0
SMALL
GAST_HUCK


@<TRIPOS>ATOM
      1 C1         10.3500   18.0310   18.6630 C.ar      1 SUB1       -0.036
      2 C2         10.3960   18.7610   17.4600 C.ar      1 SUB1       -0.072
      3 C3         11.5060   19.5930   17.1860 C.ar      1 SUB1       -0.060
      4 C4         12.5940   19.6940   18.1060 C.ar      1 SUB1        0.043
      5 C5         12.5390   18.9480   19.3440 C.ar      1 SUB1        0.004
      6 C6         11.4110   18.1140   19.5870 C.ar      1 SUB1        0.095
      7 C9         13.6480   18.9920   20.3890 C.3       1 SUB1       -0.029
      8 C13        13.7390   20.5840   17.7660 C.2       1 SUB1        0.198
      9 N14        13.4000   21.8680   17.4450 N.am      1 SUB1       -0.278
     10 C15        14.3870   22.8850   17.0580 C.3       1 SUB1        0.094
     11 C16        13.9120   23.5650   15.7410 C.3       1 SUB1        0.009
     12 C17        14.5290   23.7930   18.2960 C.3       1 SUB1        0.168
     13 C19        15.8930   24.5330   18.3050 C.2       1 SUB1        0.213
     14 N20        17.0170   23.7990   18.5890 N.am      1 SUB1       -0.238
     15 C21        18.3080   24.5330   18.6190 C.3       1 SUB1        0.149
     16 C22        19.1570   24.0320   19.8400 C.3       1 SUB1        0.053
     17 S23        18.6540   22.3260   19.9950 S.3       1 SUB1       -0.125
     18 C24        16.9620   22.8240   19.7290 C.3       1 SUB1        0.083
     19 C27        13.8110   22.5640   14.6120 C.ar      1 SUB1       -0.041
     20 C30        14.9290   22.3090   13.7810 C.ar      1 SUB1       -0.060
     21 C31        14.8450   21.3630   12.7280 C.ar      1 SUB1       -0.069
     22 C32        13.6370   20.6650   12.5020 C.ar      1 SUB1       -0.069
     23 C33        12.5140   20.9110   13.3250 C.ar      1 SUB1       -0.069
     24 C34        12.6010   21.8560   14.3720 C.ar      1 SUB1       -0.060
     25 O41        13.4910   24.7440   18.2910 O.3       1 SUB1       -0.369
     26 O44        15.9160   25.7360   18.0550 O.2       1 SUB1       -0.394
     27 C45        18.8180   24.7880   21.1480 C.3       1 SUB1       -0.046
     28 C49        20.6800   24.0820   19.6000 C.3       1 SUB1       -0.046
     29 C53        18.9290   24.2670   17.2260 C.2       1 SUB1        0.205
     30 N55        19.7400   25.2500   16.7910 N.am      1 SUB1       -0.275
     31 C56        20.4070   25.1510   15.5020 C.3       1 SUB1        0.062
     32 O57        18.6740   23.2280   16.6140 O.2       1 SUB1       -0.394
     33 O60        11.3410   17.3920   20.7560 O.3       1 SUB1       -0.336
     34 O62        14.9150   20.2110   17.7640 O.2       1 SUB1       -0.389
     35 C63        20.7450   26.5100   14.9660 C.ar      1 SUB1       -0.019
     36 C66        22.0310   27.0430   15.2400 C.ar      1 SUB1       -0.065
     37 C67        22.4040   28.3180   14.7600 C.ar      1 SUB1       -0.075
     38 C68        21.4830   29.0850   14.0180 C.ar      1 SUB1       -0.075
     39 C69        20.1990   28.5730   13.7370 C.ar      1 SUB1       -0.067
     40 C70        19.8050   27.2920   14.2150 C.ar      1 SUB1       -0.042
     41 C75        18.4160   26.7930   13.8880 C.3       1 SUB1       -0.034
     42 H11         9.4942   17.4019   18.8797 H         1 SUB1        0.056
     43 H21         9.5835   18.6855   16.7465 H         1 SUB1        0.054
     44 H31        11.5317   20.1626   16.2641 H         1 SUB1        0.056
     45 H71        14.4358   19.6790   20.0464 H         1 SUB1        0.038
     46 H72        13.2470   19.3559   21.3464 H         1 SUB1        0.038
     47 H73        14.0798   17.9889   20.5202 H         1 SUB1        0.038
     48 H91        12.4348   22.1277   17.4749 H         1 SUB1        0.185
     49 H101       15.3659   22.4199   16.8700 H         1 SUB1        0.063
     50 H111       12.9197   24.0126   15.8987 H         1 SUB1        0.045
     51 H112       14.6330   24.3438   15.4518 H         1 SUB1        0.045
     52 H121       14.4415   23.1817   19.2063 H         1 SUB1        0.086
     53 H151       18.1415   25.6150   18.7258 H         1 SUB1        0.082
     54 H181       16.5642   23.3028   20.6359 H         1 SUB1        0.064
     55 H182       16.3493   21.9487   19.4674 H         1 SUB1        0.064
     56 H201       15.8575   22.8419   13.9514 H         1 SUB1        0.056
     57 H211       15.7063   21.1754   12.0971 H         1 SUB1        0.060
     58 H221       13.5715   19.9411   11.6978 H         1 SUB1        0.056
     59 H231       11.5874   20.3753   13.1530 H         1 SUB1        0.060
     60 H241       11.7366   22.0433   14.9987 H         1 SUB1        0.056
     61 H251       13.5656   25.2885   17.5160 H         1 SUB1        0.213
     62 H271       19.4431   24.3929   21.9623 H         1 SUB1        0.024
     63 H272       19.0257   25.8612   21.0256 H         1 SUB1        0.024
     64 H273       17.7589   24.6378   21.4044 H         1 SUB1        0.024
     65 H281       21.1965   23.7160   20.4996 H         1 SUB1        0.024
     66 H282       20.9467   23.4398   18.7477 H         1 SUB1        0.024
     67 H283       20.9948   25.1173   19.4025 H         1 SUB1        0.024
     68 H301       19.8856   26.0584   17.3613 H         1 SUB1        0.188
     69 H311       21.3395   24.5787   15.6152 H         1 SUB1        0.067
     70 H312       19.7430   24.6478   14.7838 H         1 SUB1        0.067
     71 H331       10.5349   16.8895   20.7687 H         1 SUB1        0.246
     72 H361       22.7364   26.4643   15.8253 H         1 SUB1        0.054
     73 H371       23.3960   28.7057   14.9617 H         1 SUB1        0.054
     74 H381       21.7621   30.0703   13.6626 H         1 SUB1        0.054
     75 H391       19.5041   29.1625   13.1499 H         1 SUB1        0.054
     76 H411       18.2802   25.7955   14.3313 H         1 SUB1        0.038
     77 H412       17.6634   27.4767   14.3075 H         1 SUB1        0.038
     78 H413       18.2905   26.7205   12.7976 H         1 SUB1        0.038
@<TRIPOS>BOND
     1    1    2 ar 
     2    1    6 ar 
     3    2    3 ar 
     4    3    4 ar 
     5    4    5 ar 
     6    4    8 1  
     7    5    6 ar 
     8    5    7 1  
     9    6   33 1  
    10    8    9 am 
    11    8   34 2  
    12    9   10 1  
    13   10   11 1  
    14   10   12 1  
    15   11   19 1  
    16   12   13 1  
    17   12   25 1  
    18   13   14 am 
    19   13   26 2  
    20   14   15 1  
    21   14   18 1  
    22   15   16 1  
    23   15   29 1  
    24   16   17 1  
    25   16   27 1  
    26   16   28 1  
    27   17   18 1  
    28   19   20 ar 
    29   19   24 ar 
    30   20   21 ar 
    31   21   22 ar 
    32   22   23 ar 
    33   23   24 ar 
    34   29   30 am 
    35   29   32 2  
    36   30   31 1  
    37   31   35 1  
    38   35   36 ar 
    39   35   40 ar 
    40   36   37 ar 
    41   37   38 ar 
    42   38   39 ar 
    43   39   40 ar 
    44   40   41 1  
    45    1   42 1  
    46    2   43 1  
    47    3   44 1  
    48    7   45 1  
    49    7   46 1  
    50    7   47 1  
    51    9   48 1  
    52   10   49 1  
    53   11   50 1  
    54   11   51 1  
    55   12   52 1  
    56   15   53 1  
    57   18   54 1  
    58   18   55 1  
    59   20   56 1  
    60   21   57 1  
    61   22   58 1  
    62   23   59 1  
    63   24   60 1  
    64   25   61 1  
    65   27   62 1  
    66   27   63 1  
    67   27   64 1  
    68   28   65 1  
    69   28   66 1  
    70   28   67 1  
    71   30   68 1  
    72   31   69 1  
    73   31   70 1  
    74   33   71 1  
    75   36   72 1  
    76   37   73 1  
    77   38   74 1  
    78   39   75 1  
    79   41   76 1  
    80   41   77 1  
    81   41   78 1  
@<TRIPOS>SUBSTRUCTURE
     1 SUB1        1 GROUP

