1msn_ligand
  -I-interpret- 

 78 81  0  0  0  0  0  0  0  0999 V2000
   10.3500   18.0310   18.6630 C   0  0  0  0  0
   10.3960   18.7610   17.4600 C   0  0  0  0  0
   11.5060   19.5930   17.1860 C   0  0  0  0  0
   12.5940   19.6940   18.1060 C   0  0  0  0  0
   12.5390   18.9480   19.3440 C   0  0  0  0  0
   11.4110   18.1140   19.5870 C   0  0  0  0  0
   13.6480   18.9920   20.3890 C   0  0  0  0  0
   13.7390   20.5840   17.7660 C   0  0  0  0  0
   13.4000   21.8680   17.4450 N   0  0  0  0  0
   14.3870   22.8850   17.0580 C   0  0  0  0  0
   13.9120   23.5650   15.7410 C   0  0  0  0  0
   14.5290   23.7930   18.2960 C   0  0  0  0  0
   15.8930   24.5330   18.3050 C   0  0  0  0  0
   17.0170   23.7990   18.5890 N   0  0  0  0  0
   18.3080   24.5330   18.6190 C   0  0  0  0  0
   19.1570   24.0320   19.8400 C   0  0  0  0  0
   18.6540   22.3260   19.9950 S   0  0  0  0  0
   16.9620   22.8240   19.7290 C   0  0  0  0  0
   13.8110   22.5640   14.6120 C   0  0  0  0  0
   14.9290   22.3090   13.7810 C   0  0  0  0  0
   14.8450   21.3630   12.7280 C   0  0  0  0  0
   13.6370   20.6650   12.5020 C   0  0  0  0  0
   12.5140   20.9110   13.3250 C   0  0  0  0  0
   12.6010   21.8560   14.3720 C   0  0  0  0  0
   13.4910   24.7440   18.2910 O   0  0  0  0  0
   15.9160   25.7360   18.0550 O   0  0  0  0  0
   18.8180   24.7880   21.1480 C   0  0  0  0  0
   20.6800   24.0820   19.6000 C   0  0  0  0  0
   18.9290   24.2670   17.2260 C   0  0  0  0  0
   19.7400   25.2500   16.7910 N   0  0  0  0  0
   20.4070   25.1510   15.5020 C   0  0  0  0  0
   18.6740   23.2280   16.6140 O   0  0  0  0  0
   11.3410   17.3920   20.7560 O   0  0  0  0  0
   14.9150   20.2110   17.7640 O   0  0  0  0  0
   20.7450   26.5100   14.9660 C   0  0  0  0  0
   22.0310   27.0430   15.2400 C   0  0  0  0  0
   22.4040   28.3180   14.7600 C   0  0  0  0  0
   21.4830   29.0850   14.0180 C   0  0  0  0  0
   20.1990   28.5730   13.7370 C   0  0  0  0  0
   19.8050   27.2920   14.2150 C   0  0  0  0  0
   18.4160   26.7930   13.8880 C   0  0  0  0  0
    9.4942   17.4019   18.8797 H   0  0  0  0  0
    9.5835   18.6855   16.7465 H   0  0  0  0  0
   11.5317   20.1626   16.2641 H   0  0  0  0  0
   14.4358   19.6790   20.0464 H   0  0  0  0  0
   13.2470   19.3559   21.3464 H   0  0  0  0  0
   14.0798   17.9889   20.5202 H   0  0  0  0  0
   12.4348   22.1277   17.4749 H   0  0  0  0  0
   15.3659   22.4199   16.8700 H   0  0  0  0  0
   12.9197   24.0126   15.8987 H   0  0  0  0  0
   14.6330   24.3438   15.4518 H   0  0  0  0  0
   14.4415   23.1817   19.2063 H   0  0  0  0  0
   18.1415   25.6150   18.7258 H   0  0  0  0  0
   16.5642   23.3028   20.6359 H   0  0  0  0  0
   16.3493   21.9487   19.4674 H   0  0  0  0  0
   15.8575   22.8419   13.9514 H   0  0  0  0  0
   15.7063   21.1754   12.0971 H   0  0  0  0  0
   13.5715   19.9411   11.6978 H   0  0  0  0  0
   11.5874   20.3753   13.1530 H   0  0  0  0  0
   11.7366   22.0433   14.9987 H   0  0  0  0  0
   13.5656   25.2885   17.5160 H   0  0  0  0  0
   19.4431   24.3929   21.9623 H   0  0  0  0  0
   19.0257   25.8612   21.0256 H   0  0  0  0  0
   17.7589   24.6378   21.4044 H   0  0  0  0  0
   21.1965   23.7160   20.4996 H   0  0  0  0  0
   20.9467   23.4398   18.7477 H   0  0  0  0  0
   20.9948   25.1173   19.4025 H   0  0  0  0  0
   19.8856   26.0584   17.3613 H   0  0  0  0  0
   21.3395   24.5787   15.6152 H   0  0  0  0  0
   19.7430   24.6478   14.7838 H   0  0  0  0  0
   10.5349   16.8895   20.7687 H   0  0  0  0  0
   22.7364   26.4643   15.8253 H   0  0  0  0  0
   23.3960   28.7057   14.9617 H   0  0  0  0  0
   21.7621   30.0703   13.6626 H   0  0  0  0  0
   19.5041   29.1625   13.1499 H   0  0  0  0  0
   18.2802   25.7955   14.3313 H   0  0  0  0  0
   17.6634   27.4767   14.3075 H   0  0  0  0  0
   18.2905   26.7205   12.7976 H   0  0  0  0  0
  1  2  4  0  0  0
  1  6  4  0  0  0
  2  3  4  0  0  0
  3  4  4  0  0  0
  4  5  4  0  0  0
  4  8  1  0  0  0
  5  6  4  0  0  0
  5  7  1  0  0  0
  6 33  1  0  0  0
  8  9  1  0  0  0
  8 34  2  0  0  0
  9 10  1  0  0  0
 10 11  1  0  0  0
 10 12  1  0  0  0
 11 19  1  0  0  0
 12 13  1  0  0  0
 12 25  1  0  0  0
 13 14  1  0  0  0
 13 26  2  0  0  0
 14 15  1  0  0  0
 14 18  1  0  0  0
 15 16  1  0  0  0
 15 29  1  0  0  0
 16 17  1  0  0  0
 16 27  1  0  0  0
 16 28  1  0  0  0
 17 18  1  0  0  0
 19 20  4  0  0  0
 19 24  4  0  0  0
 20 21  4  0  0  0
 21 22  4  0  0  0
 22 23  4  0  0  0
 23 24  4  0  0  0
 29 30  1  0  0  0
 29 32  2  0  0  0
 30 31  1  0  0  0
 31 35  1  0  0  0
 35 36  4  0  0  0
 35 40  4  0  0  0
 36 37  4  0  0  0
 37 38  4  0  0  0
 38 39  4  0  0  0
 39 40  4  0  0  0
 40 41  1  0  0  0
  1 42  1  0  0  0
  2 43  1  0  0  0
  3 44  1  0  0  0
  7 45  1  0  0  0
  7 46  1  0  0  0
  7 47  1  0  0  0
  9 48  1  0  0  0
 10 49  1  0  0  0
 11 50  1  0  0  0
 11 51  1  0  0  0
 12 52  1  0  0  0
 15 53  1  0  0  0
 18 54  1  0  0  0
 18 55  1  0  0  0
 20 56  1  0  0  0
 21 57  1  0  0  0
 22 58  1  0  0  0
 23 59  1  0  0  0
 24 60  1  0  0  0
 25 61  1  0  0  0
 27 62  1  0  0  0
 27 63  1  0  0  0
 27 64  1  0  0  0
 28 65  1  0  0  0
 28 66  1  0  0  0
 28 67  1  0  0  0
 30 68  1  0  0  0
 31 69  1  0  0  0
 31 70  1  0  0  0
 33 71  1  0  0  0
 36 72  1  0  0  0
 37 73  1  0  0  0
 38 74  1  0  0  0
 39 75  1  0  0  0
 41 76  1  0  0  0
 41 77  1  0  0  0
 41 78  1  0  0  0
M  END
$$$$
