### 
### Created by X-TOOL on Sun Jun  3 11:53:44 2007
### 

@<TRIPOS>MOLECULE
2boj_ligand
   23    23     1     0     0
SMALL
GAST_HUCK


@<TRIPOS>ATOM
      1 C1         22.4520   22.4300   30.0970 C.3       1 SUB1        0.187
      2 C2         21.7080   23.1710   28.9830 C.3       1 SUB1        0.134
      3 C3         20.7800   22.1860   28.2660 C.3       1 SUB1        0.114
      4 C4         19.8100   21.5500   29.2530 C.3       1 SUB1        0.107
      5 C5         20.5100   20.9630   30.4760 C.3       1 SUB1        0.079
      6 O1         23.2910   21.4520   29.4690 O.3       1 SUB1       -0.352
      7 O2         22.6180   23.7930   28.0500 O.3       1 SUB1       -0.384
      8 O3         20.0100   22.9310   27.2990 O.3       1 SUB1       -0.386
      9 O4         18.9120   22.5670   29.7170 O.3       1 SUB1       -0.387
     10 O5         21.4680   21.8920   31.0140 O.3       1 SUB1       -0.346
     11 CM         24.1900   20.7990   30.3800 C.3       1 SUB1        0.040
     12 H          23.1024   23.0688   30.6945 H         1 SUB1        0.094
     13 H          21.1201   23.9735   29.4284 H         1 SUB1        0.067
     14 H          21.3754   21.4036   27.7953 H         1 SUB1        0.065
     15 H          19.2982   20.7402   28.7330 H         1 SUB1        0.064
     16 H          21.0322   20.0537   30.1783 H         1 SUB1        0.059
     17 H          19.7618   20.7494   31.2394 H         1 SUB1        0.059
     18 H          23.1521   23.1169   27.6267 H         1 SUB1        0.210
     19 H          19.5030   23.6101   27.7500 H         1 SUB1        0.210
     20 H          18.4557   22.9558   28.9672 H         1 SUB1        0.210
     21 H          24.8415   21.5417   30.8405 H         1 SUB1        0.052
     22 H          23.6150   20.2890   31.1529 H         1 SUB1        0.052
     23 H          24.7931   20.0727   29.8352 H         1 SUB1        0.052
@<TRIPOS>BOND
     1    1    2 1  
     2    1    6 1  
     3    1   10 1  
     4    2    3 1  
     5    2    7 1  
     6    3    4 1  
     7    3    8 1  
     8    4    5 1  
     9    4    9 1  
    10    5   10 1  
    11    6   11 1  
    12    1   12 1  
    13    2   13 1  
    14    3   14 1  
    15    4   15 1  
    16    5   16 1  
    17    5   17 1  
    18    7   18 1  
    19    8   19 1  
    20    9   20 1  
    21   11   21 1  
    22   11   22 1  
    23   11   23 1  
@<TRIPOS>SUBSTRUCTURE
     1 SUB1        1 GROUP

