2boj_ligand
  -I-interpret- 

 23 23  0  0  0  0  0  0  0  0999 V2000
   22.4520   22.4300   30.0970 C   0  0  0  0  0
   21.7080   23.1710   28.9830 C   0  0  0  0  0
   20.7800   22.1860   28.2660 C   0  0  0  0  0
   19.8100   21.5500   29.2530 C   0  0  0  0  0
   20.5100   20.9630   30.4760 C   0  0  0  0  0
   23.2910   21.4520   29.4690 O   0  0  0  0  0
   22.6180   23.7930   28.0500 O   0  0  0  0  0
   20.0100   22.9310   27.2990 O   0  0  0  0  0
   18.9120   22.5670   29.7170 O   0  0  0  0  0
   21.4680   21.8920   31.0140 O   0  0  0  0  0
   24.1900   20.7990   30.3800 C   0  0  0  0  0
   23.1024   23.0688   30.6945 H   0  0  0  0  0
   21.1201   23.9735   29.4284 H   0  0  0  0  0
   21.3754   21.4036   27.7953 H   0  0  0  0  0
   19.2982   20.7402   28.7330 H   0  0  0  0  0
   21.0322   20.0537   30.1783 H   0  0  0  0  0
   19.7618   20.7494   31.2394 H   0  0  0  0  0
   23.1521   23.1169   27.6267 H   0  0  0  0  0
   19.5030   23.6101   27.7500 H   0  0  0  0  0
   18.4557   22.9558   28.9672 H   0  0  0  0  0
   24.8415   21.5417   30.8405 H   0  0  0  0  0
   23.6150   20.2890   31.1529 H   0  0  0  0  0
   24.7931   20.0727   29.8352 H   0  0  0  0  0
  1  2  1  0  0  0
  1  6  1  0  0  0
  1 10  1  0  0  0
  2  3  1  0  0  0
  2  7  1  0  0  0
  3  4  1  0  0  0
  3  8  1  0  0  0
  4  5  1  0  0  0
  4  9  1  0  0  0
  5 10  1  0  0  0
  6 11  1  0  0  0
  1 12  1  0  0  0
  2 13  1  0  0  0
  3 14  1  0  0  0
  4 15  1  0  0  0
  5 16  1  0  0  0
  5 17  1  0  0  0
  7 18  1  0  0  0
  8 19  1  0  0  0
  9 20  1  0  0  0
 11 21  1  0  0  0
 11 22  1  0  0  0
 11 23  1  0  0  0
M  END
$$$$
