### 
### Created by X-TOOL on Mon Oct 24 22:06:24 2005
### 

@<TRIPOS>MOLECULE
1i5r_ligand
  100   106     1     0     0
SMALL
GAST_HUCK


@<TRIPOS>ATOM
      1 C1          9.5910   11.4690  -11.3480 C.ar      1 SUB1       -0.075
      2 C2          8.8490   12.2670  -12.2430 C.ar      1 SUB1       -0.047
      3 C3          8.4840   11.7920  -13.5070 C.ar      1 SUB1        0.074
      4 O3          7.8080   12.5360  -14.3070 O.3       1 SUB1       -0.339
      5 C4          8.8560   10.4830  -13.9180 C.ar      1 SUB1       -0.038
      6 C5          9.6040    9.6400  -13.0510 C.ar      1 SUB1       -0.049
      7 C6          9.9900    8.2060  -13.5490 C.3       1 SUB1       -0.024
      8 C7         11.1000    7.5010  -12.6550 C.3       1 SUB1       -0.040
      9 C8         10.6400    7.7270  -11.1740 C.3       1 SUB1       -0.026
     10 C9         10.7920    9.2360  -10.7870 C.3       1 SUB1       -0.012
     11 C10         9.9750   10.1410  -11.7500 C.ar      1 SUB1       -0.048
     12 C11        10.3150    9.4500   -9.2890 C.3       1 SUB1       -0.042
     13 C12        11.0970    8.5550   -8.2760 C.3       1 SUB1       -0.043
     14 C13        11.0950    7.0540   -8.6680 C.3       1 SUB1       -0.002
     15 C14        11.4950    6.8710  -10.1750 C.3       1 SUB1       -0.028
     16 C15        11.4500    5.2540  -10.4250 C.3       1 SUB1       -0.044
     17 C16        12.4530    4.9260   -9.1210 C.3       1 SUB1       -0.014
     18 C17        12.1830    6.0680   -8.0340 C.3       1 SUB1        0.064
     19 O17        11.6130    5.6280   -6.8430 O.3       1 SUB1       -0.391
     20 C18         9.6360    6.4090   -8.4670 C.3       1 SUB1       -0.057
     21 C21        11.9990    3.6130   -8.5850 C.3       1 SUB1       -0.048
     22 C22        12.2890    2.6410   -9.6260 C.3       1 SUB1       -0.053
     23 C23        11.8820    1.1960   -9.2410 C.3       1 SUB1       -0.053
     24 C24        12.9940    0.6540   -8.4110 C.3       1 SUB1       -0.053
     25 C25        12.9160   -0.8050   -8.3630 C.3       1 SUB1       -0.053
     26 C26        14.0010   -1.3910   -7.5480 C.3       1 SUB1       -0.051
     27 C27        13.2470   -2.1970   -6.6170 C.3       1 SUB1       -0.035
     28 C28        14.2990   -2.8430   -5.7240 C.3       1 SUB1        0.049
     29 C31        16.2250   -6.2660   -1.9410 C.3       1 SUB1        0.201
     30 C32        16.8810   -6.2360   -3.2820 C.3       1 SUB1        0.139
     31 O32        17.5030   -7.3610   -3.6240 O.3       1 SUB1       -0.384
     32 C33        17.6560   -5.0180   -3.1390 C.3       1 SUB1        0.115
     33 O33        18.8010   -5.2660   -2.6840 O.3       1 SUB1       -0.386
     34 C34        16.8820   -4.1110   -2.2120 C.3       1 SUB1        0.118
     35 O34        15.6900   -4.9350   -1.9090 O.3       1 SUB1       -0.336
     36 C35        16.2480   -2.7840   -2.7520 C.3       1 SUB1        0.105
     37 O35        15.7120   -3.2520   -4.0410 O.3       1 SUB1       -0.274
     38 C36        14.6950   -2.2150   -4.4750 C.2       1 SUB1        0.234
     39 O36        14.2470   -1.2000   -4.0830 O.2       1 SUB1       -0.370
     40 N41        14.0330   -9.5360    1.2550 N.ar      1 SUB1       -0.270
     41 C42        15.0830   -8.7200    1.4210 C.ar      1 SUB1        0.053
     42 N43        15.5930   -7.8870    0.5150 N.ar      1 SUB1       -0.271
     43 C44        14.9600   -7.8600   -0.7570 C.ar      1 SUB1        0.161
     44 C45        13.7930   -8.7260   -1.0340 C.ar      1 SUB1        0.105
     45 C46        13.4030   -9.5610    0.1050 C.ar      1 SUB1        0.130
     46 N46        12.2890  -10.3840   -0.1710 N.pl3     1 SUB1       -0.315
     47 N47        13.3050   -8.5660   -2.3290 N.2       1 SUB1       -0.296
     48 C48        14.2030   -7.6110   -2.7680 C.2       1 SUB1        0.112
     49 N49        15.1900   -7.1520   -1.9150 N.pl3     1 SUB1       -0.192
     50 H11         9.8682   11.8499  -10.3717 H         1 SUB1        0.051
     51 H21         8.5559   13.2674  -11.9459 H         1 SUB1        0.047
     52 H41         7.6460   12.0643  -15.1155 H         1 SUB1        0.246
     53 H51         8.5673   10.1249  -14.8996 H         1 SUB1        0.046
     54 H71         9.0916    7.5715  -13.5339 H         1 SUB1        0.041
     55 H72        10.3799    8.2797  -14.5749 H         1 SUB1        0.041
     56 H81        11.1513    6.4238  -12.8716 H         1 SUB1        0.029
     57 H82        12.0849    7.9634  -12.8166 H         1 SUB1        0.029
     58 H101       11.8536    9.5172  -10.8496 H         1 SUB1        0.043
     59 H121       10.4735   10.5018   -9.0087 H         1 SUB1        0.029
     60 H122        9.2469    9.1986   -9.2131 H         1 SUB1        0.029
     61 H131       12.1426    8.8938   -8.2330 H         1 SUB1        0.027
     62 H132       10.6315    8.6479   -7.2837 H         1 SUB1        0.027
     63 H151       12.5395    7.1919  -10.3016 H         1 SUB1        0.031
     64 H161       10.4467    4.8180  -10.3106 H         1 SUB1        0.027
     65 H162       11.8862    4.9442  -11.3861 H         1 SUB1        0.027
     66 H171       13.5138    4.8825   -9.4086 H         1 SUB1        0.033
     67 H181       13.1232    6.5913   -7.8057 H         1 SUB1        0.060
     68 H191       11.4890    6.3679   -6.2603 H         1 SUB1        0.210
     69 H201        8.8834    7.0834   -8.9015 H         1 SUB1        0.024
     70 H202        9.5824    5.4361   -8.9775 H         1 SUB1        0.024
     71 H203        9.4265    6.2819   -7.3947 H         1 SUB1        0.024
     72 H211       12.5507    3.3544   -7.6692 H         1 SUB1        0.027
     73 H212       10.9184    3.6286   -8.3800 H         1 SUB1        0.027
     74 H221       11.7366    2.9178  -10.5360 H         1 SUB1        0.026
     75 H222       13.3703    2.6464   -9.8275 H         1 SUB1        0.026
     76 H231       10.9509    1.1995   -8.6554 H         1 SUB1        0.026
     77 H232       11.7565    0.5767  -10.1413 H         1 SUB1        0.026
     78 H241       13.9599    0.9423   -8.8513 H         1 SUB1        0.026
     79 H242       12.9170    1.0462   -7.3862 H         1 SUB1        0.026
     80 H251       11.9539   -1.1014   -7.9198 H         1 SUB1        0.026
     81 H252       12.9977   -1.2054   -9.3842 H         1 SUB1        0.026
     82 H261       14.6748   -2.0159   -8.1526 H         1 SUB1        0.027
     83 H262       14.5790   -0.6182   -7.0201 H         1 SUB1        0.027
     84 H271       12.5712   -1.5733   -6.0135 H         1 SUB1        0.029
     85 H272       12.6714   -2.9724   -7.1436 H         1 SUB1        0.029
     86 H281       13.9247   -3.8421   -5.4564 H         1 SUB1        0.052
     87 H282       15.2173   -2.9345   -6.3226 H         1 SUB1        0.052
     88 H291       16.9269   -6.4802   -1.1216 H         1 SUB1        0.100
     89 H301       16.1238   -6.0611   -4.0605 H         1 SUB1        0.068
     90 H311       18.1842   -7.5504   -2.9894 H         1 SUB1        0.210
     91 H321       17.7572   -4.5216   -4.1154 H         1 SUB1        0.065
     92 H331       19.2568   -5.8507   -3.2780 H         1 SUB1        0.210
     93 H341       17.4903   -3.8734   -1.3269 H         1 SUB1        0.065
     94 H361       15.4435   -2.4157   -2.0985 H         1 SUB1        0.064
     95 H362       17.0020   -1.9967   -2.8987 H         1 SUB1        0.064
     96 H411       15.5665   -8.7397    2.3910 H         1 SUB1        0.100
     97 H461       11.8423  -10.3520   -1.0985 H         1 SUB1        0.182
     98 H462       11.9232  -11.0162    0.5553 H         1 SUB1        0.182
     99 H481       14.1334   -7.2213   -3.7825 H         1 SUB1        0.135
    100 H91         9.5873    7.4241  -11.0745 H         1 SUB1        0.033
@<TRIPOS>BOND
     1    1    2 ar 
     2   11    1 ar 
     3    2    3 ar 
     4    3    4 1  
     5    5    3 ar 
     6    6    5 ar 
     7    7    6 1  
     8   11    6 ar 
     9    8    7 1  
    10    9    8 1  
    11    9   10 1  
    12   15    9 1  
    13   10   11 1  
    14   12   10 1  
    15   13   12 1  
    16   14   13 1  
    17   14   15 1  
    18   18   14 1  
    19   14   20 1  
    20   16   15 1  
    21   17   16 1  
    22   17   18 1  
    23   21   17 1  
    24   18   19 1  
    25   22   21 1  
    26   23   22 1  
    27   24   23 1  
    28   25   24 1  
    29   26   25 1  
    30   27   26 1  
    31   28   27 1  
    32   38   28 1  
    33   29   30 1  
    34   29   35 1  
    35   30   31 1  
    36   30   32 1  
    37   32   33 1  
    38   34   32 1  
    39   35   34 1  
    40   34   36 1  
    41   36   37 1  
    42   37   38 1  
    43   38   39 2  
    44   41   40 ar 
    45   45   40 ar 
    46   42   41 ar 
    47   43   42 ar 
    48   43   44 ar 
    49   49   43 1  
    50   44   45 ar 
    51   47   44 1  
    52   45   46 1  
    53   48   47 2  
    54   49   48 1  
    55   29   49 1  
    56    1   50 1  
    57    2   51 1  
    58    4   52 1  
    59    5   53 1  
    60    7   54 1  
    61    7   55 1  
    62    8   56 1  
    63    8   57 1  
    64   10   58 1  
    65   12   59 1  
    66   12   60 1  
    67   13   61 1  
    68   13   62 1  
    69   15   63 1  
    70   16   64 1  
    71   16   65 1  
    72   17   66 1  
    73   18   67 1  
    74   19   68 1  
    75   20   69 1  
    76   20   70 1  
    77   20   71 1  
    78   21   72 1  
    79   21   73 1  
    80   22   74 1  
    81   22   75 1  
    82   23   76 1  
    83   23   77 1  
    84   24   78 1  
    85   24   79 1  
    86   25   80 1  
    87   25   81 1  
    88   26   82 1  
    89   26   83 1  
    90   27   84 1  
    91   27   85 1  
    92   28   86 1  
    93   28   87 1  
    94   29   88 1  
    95   30   89 1  
    96   31   90 1  
    97   32   91 1  
    98   33   92 1  
    99   34   93 1  
   100   36   94 1  
   101   36   95 1  
   102   41   96 1  
   103   46   97 1  
   104   46   98 1  
   105   48   99 1  
   106    9  100 1  
@<TRIPOS>SUBSTRUCTURE
     1 SUB1        1 GROUP

