1i5r_ligand
  -I-interpret- 

100106  0  0  0  0  0  0  0  0999 V2000
    9.5910   11.4690  -11.3480 C   0  0  0  0  0
    8.8490   12.2670  -12.2430 C   0  0  0  0  0
    8.4840   11.7920  -13.5070 C   0  0  0  0  0
    7.8080   12.5360  -14.3070 O   0  0  0  0  0
    8.8560   10.4830  -13.9180 C   0  0  0  0  0
    9.6040    9.6400  -13.0510 C   0  0  0  0  0
    9.9900    8.2060  -13.5490 C   0  0  0  0  0
   11.1000    7.5010  -12.6550 C   0  0  0  0  0
   10.6400    7.7270  -11.1740 C   0  0  0  0  0
   10.7920    9.2360  -10.7870 C   0  0  0  0  0
    9.9750   10.1410  -11.7500 C   0  0  0  0  0
   10.3150    9.4500   -9.2890 C   0  0  0  0  0
   11.0970    8.5550   -8.2760 C   0  0  0  0  0
   11.0950    7.0540   -8.6680 C   0  0  0  0  0
   11.4950    6.8710  -10.1750 C   0  0  0  0  0
   11.4500    5.2540  -10.4250 C   0  0  0  0  0
   12.4530    4.9260   -9.1210 C   0  0  0  0  0
   12.1830    6.0680   -8.0340 C   0  0  0  0  0
   11.6130    5.6280   -6.8430 O   0  0  0  0  0
    9.6360    6.4090   -8.4670 C   0  0  0  0  0
   11.9990    3.6130   -8.5850 C   0  0  0  0  0
   12.2890    2.6410   -9.6260 C   0  0  0  0  0
   11.8820    1.1960   -9.2410 C   0  0  0  0  0
   12.9940    0.6540   -8.4110 C   0  0  0  0  0
   12.9160   -0.8050   -8.3630 C   0  0  0  0  0
   14.0010   -1.3910   -7.5480 C   0  0  0  0  0
   13.2470   -2.1970   -6.6170 C   0  0  0  0  0
   14.2990   -2.8430   -5.7240 C   0  0  0  0  0
   16.2250   -6.2660   -1.9410 C   0  0  0  0  0
   16.8810   -6.2360   -3.2820 C   0  0  0  0  0
   17.5030   -7.3610   -3.6240 O   0  0  0  0  0
   17.6560   -5.0180   -3.1390 C   0  0  0  0  0
   18.8010   -5.2660   -2.6840 O   0  0  0  0  0
   16.8820   -4.1110   -2.2120 C   0  0  0  0  0
   15.6900   -4.9350   -1.9090 O   0  0  0  0  0
   16.2480   -2.7840   -2.7520 C   0  0  0  0  0
   15.7120   -3.2520   -4.0410 O   0  0  0  0  0
   14.6950   -2.2150   -4.4750 C   0  0  0  0  0
   14.2470   -1.2000   -4.0830 O   0  0  0  0  0
   14.0330   -9.5360    1.2550 N   0  0  0  0  0
   15.0830   -8.7200    1.4210 C   0  0  0  0  0
   15.5930   -7.8870    0.5150 N   0  0  0  0  0
   14.9600   -7.8600   -0.7570 C   0  0  0  0  0
   13.7930   -8.7260   -1.0340 C   0  0  0  0  0
   13.4030   -9.5610    0.1050 C   0  0  0  0  0
   12.2890  -10.3840   -0.1710 N   0  0  0  0  0
   13.3050   -8.5660   -2.3290 N   0  0  0  0  0
   14.2030   -7.6110   -2.7680 C   0  0  0  0  0
   15.1900   -7.1520   -1.9150 N   0  0  0  0  0
    9.8682   11.8499  -10.3717 H   0  0  0  0  0
    8.5559   13.2674  -11.9459 H   0  0  0  0  0
    7.6460   12.0643  -15.1155 H   0  0  0  0  0
    8.5673   10.1249  -14.8996 H   0  0  0  0  0
    9.0916    7.5715  -13.5339 H   0  0  0  0  0
   10.3799    8.2797  -14.5749 H   0  0  0  0  0
   11.1513    6.4238  -12.8716 H   0  0  0  0  0
   12.0849    7.9634  -12.8166 H   0  0  0  0  0
   11.8536    9.5172  -10.8496 H   0  0  0  0  0
   10.4735   10.5018   -9.0087 H   0  0  0  0  0
    9.2469    9.1986   -9.2131 H   0  0  0  0  0
   12.1426    8.8938   -8.2330 H   0  0  0  0  0
   10.6315    8.6479   -7.2837 H   0  0  0  0  0
   12.5395    7.1919  -10.3016 H   0  0  0  0  0
   10.4467    4.8180  -10.3106 H   0  0  0  0  0
   11.8862    4.9442  -11.3861 H   0  0  0  0  0
   13.5138    4.8825   -9.4086 H   0  0  0  0  0
   13.1232    6.5913   -7.8057 H   0  0  0  0  0
   11.4890    6.3679   -6.2603 H   0  0  0  0  0
    8.8834    7.0834   -8.9015 H   0  0  0  0  0
    9.5824    5.4361   -8.9775 H   0  0  0  0  0
    9.4265    6.2819   -7.3947 H   0  0  0  0  0
   12.5507    3.3544   -7.6692 H   0  0  0  0  0
   10.9184    3.6286   -8.3800 H   0  0  0  0  0
   11.7366    2.9178  -10.5360 H   0  0  0  0  0
   13.3703    2.6464   -9.8275 H   0  0  0  0  0
   10.9509    1.1995   -8.6554 H   0  0  0  0  0
   11.7565    0.5767  -10.1413 H   0  0  0  0  0
   13.9599    0.9423   -8.8513 H   0  0  0  0  0
   12.9170    1.0462   -7.3862 H   0  0  0  0  0
   11.9539   -1.1014   -7.9198 H   0  0  0  0  0
   12.9977   -1.2054   -9.3842 H   0  0  0  0  0
   14.6748   -2.0159   -8.1526 H   0  0  0  0  0
   14.5790   -0.6182   -7.0201 H   0  0  0  0  0
   12.5712   -1.5733   -6.0135 H   0  0  0  0  0
   12.6714   -2.9724   -7.1436 H   0  0  0  0  0
   13.9247   -3.8421   -5.4564 H   0  0  0  0  0
   15.2173   -2.9345   -6.3226 H   0  0  0  0  0
   16.9269   -6.4802   -1.1216 H   0  0  0  0  0
   16.1238   -6.0611   -4.0605 H   0  0  0  0  0
   18.1842   -7.5504   -2.9894 H   0  0  0  0  0
   17.7572   -4.5216   -4.1154 H   0  0  0  0  0
   19.2568   -5.8507   -3.2780 H   0  0  0  0  0
   17.4903   -3.8734   -1.3269 H   0  0  0  0  0
   15.4435   -2.4157   -2.0985 H   0  0  0  0  0
   17.0020   -1.9967   -2.8987 H   0  0  0  0  0
   15.5665   -8.7397    2.3910 H   0  0  0  0  0
   11.8423  -10.3520   -1.0985 H   0  0  0  0  0
   11.9232  -11.0162    0.5553 H   0  0  0  0  0
   14.1334   -7.2213   -3.7825 H   0  0  0  0  0
    9.5873    7.4241  -11.0745 H   0  0  0  0  0
  1  2  4  0  0  0
 11  1  4  0  0  0
  2  3  4  0  0  0
  3  4  1  0  0  0
  5  3  4  0  0  0
  6  5  4  0  0  0
  7  6  1  0  0  0
 11  6  4  0  0  0
  8  7  1  0  0  0
  9  8  1  0  0  0
  9 10  1  0  0  0
 15  9  1  0  0  0
 10 11  1  0  0  0
 12 10  1  0  0  0
 13 12  1  0  0  0
 14 13  1  0  0  0
 14 15  1  0  0  0
 18 14  1  0  0  0
 14 20  1  0  0  0
 16 15  1  0  0  0
 17 16  1  0  0  0
 17 18  1  0  0  0
 21 17  1  0  0  0
 18 19  1  0  0  0
 22 21  1  0  0  0
 23 22  1  0  0  0
 24 23  1  0  0  0
 25 24  1  0  0  0
 26 25  1  0  0  0
 27 26  1  0  0  0
 28 27  1  0  0  0
 38 28  1  0  0  0
 29 30  1  0  0  0
 29 35  1  0  0  0
 30 31  1  0  0  0
 30 32  1  0  0  0
 32 33  1  0  0  0
 34 32  1  0  0  0
 35 34  1  0  0  0
 34 36  1  0  0  0
 36 37  1  0  0  0
 37 38  1  0  0  0
 38 39  2  0  0  0
 41 40  4  0  0  0
 45 40  4  0  0  0
 42 41  4  0  0  0
 43 42  4  0  0  0
 43 44  4  0  0  0
 49 43  1  0  0  0
 44 45  4  0  0  0
 47 44  1  0  0  0
 45 46  1  0  0  0
 48 47  2  0  0  0
 49 48  1  0  0  0
 29 49  1  0  0  0
  1 50  1  0  0  0
  2 51  1  0  0  0
  4 52  1  0  0  0
  5 53  1  0  0  0
  7 54  1  0  0  0
  7 55  1  0  0  0
  8 56  1  0  0  0
  8 57  1  0  0  0
 10 58  1  0  0  0
 12 59  1  0  0  0
 12 60  1  0  0  0
 13 61  1  0  0  0
 13 62  1  0  0  0
 15 63  1  0  0  0
 16 64  1  0  0  0
 16 65  1  0  0  0
 17 66  1  0  0  0
 18 67  1  0  0  0
 19 68  1  0  0  0
 20 69  1  0  0  0
 20 70  1  0  0  0
 20 71  1  0  0  0
 21 72  1  0  0  0
 21 73  1  0  0  0
 22 74  1  0  0  0
 22 75  1  0  0  0
 23 76  1  0  0  0
 23 77  1  0  0  0
 24 78  1  0  0  0
 24 79  1  0  0  0
 25 80  1  0  0  0
 25 81  1  0  0  0
 26 82  1  0  0  0
 26 83  1  0  0  0
 27 84  1  0  0  0
 27 85  1  0  0  0
 28 86  1  0  0  0
 28 87  1  0  0  0
 29 88  1  0  0  0
 30 89  1  0  0  0
 31 90  1  0  0  0
 32 91  1  0  0  0
 33 92  1  0  0  0
 34 93  1  0  0  0
 36 94  1  0  0  0
 36 95  1  0  0  0
 41 96  1  0  0  0
 46 97  1  0  0  0
 46 98  1  0  0  0
 48 99  1  0  0  0
  9100  1  0  0  0
M  END
$$$$
