### 
### Created by X-TOOL on Mon Oct 24 22:40:19 2005
### 

@<TRIPOS>MOLECULE
1a4w_ligand
   82    85     1     0     0
SMALL
GAST_HUCK


@<TRIPOS>ATOM
      1 C1         17.7350  -17.1780   22.6120 C.ar      1 SUB1        0.110
      2 C2         18.5430  -17.3500   21.4620 C.ar      1 SUB1       -0.038
      3 C3         19.8770  -17.0460   21.5580 C.ar      1 SUB1       -0.062
      4 C4         20.4010  -16.5660   22.7660 C.ar      1 SUB1       -0.055
      5 C4A        19.6130  -16.3580   23.8930 C.ar      1 SUB1        0.006
      6 C5         20.0840  -15.7910   25.0460 C.ar      1 SUB1        0.042
      7 C6         19.2410  -15.5680   26.1140 C.ar      1 SUB1       -0.049
      8 C7         17.8930  -15.9710   26.0280 C.ar      1 SUB1       -0.079
      9 C8         17.3700  -16.5100   24.8790 C.ar      1 SUB1       -0.070
     10 C8A        18.2050  -16.6890   23.8090 C.ar      1 SUB1       -0.003
     11 N          21.3830  -15.2850   25.1040 N.3       1 SUB1       -0.253
     12 CM1        21.8980  -14.2170   24.2140 C.3       1 SUB1        0.009
     13 CM2        22.6350  -16.2130   25.4960 C.3       1 SUB1        0.009
     14 S          15.9090  -17.5810   22.4170 S.o2      1 SUB1        0.069
     15 O1S        15.9880  -18.0130   21.0100 O.2       1 SUB1       -0.151
     16 O2S        14.9980  -18.1910   23.4020 O.2       1 SUB1       -0.151
     17 N          14.8930  -15.9700   22.4850 N.am      1 SUB1       -0.226
     18 CA         15.1930  -15.1140   21.2960 C.3       1 SUB1        0.126
     19 C          16.3070  -14.1670   21.7520 C.2       1 SUB1        0.200
     20 O          16.2120  -13.7810   22.9140 O.2       1 SUB1       -0.395
     21 CB         13.9420  -14.3540   20.8790 C.3       1 SUB1       -0.014
     22 CG         13.2320  -13.6860   22.0580 C.3       1 SUB1       -0.030
     23 CD         11.8920  -13.1330   21.5950 C.3       1 SUB1        0.051
     24 NE         11.2180  -12.6470   22.7800 N.pl3     1 SUB1       -0.170
     25 CZ         11.4570  -11.5540   23.4830 C.cat     1 SUB1        0.387
     26 NH1        12.3590  -10.6740   23.0450 N.pl3     1 SUB1       -0.183
     27 NH2        10.7230  -11.3360   24.5660 N.pl3     1 SUB1       -0.183
     28 N1         17.2800  -13.6920   20.8300 N.am      1 SUB1       -0.269
     29 C2         17.0430  -14.0330   19.3270 C.3       1 SUB1        0.047
     30 C3         18.4210  -14.4720   18.8090 C.3       1 SUB1       -0.030
     31 C4         19.6100  -13.4170   19.1940 C.3       1 SUB1       -0.049
     32 C5         19.6960  -13.0830   20.7650 C.3       1 SUB1       -0.032
     33 C6         18.3510  -12.6800   21.3100 C.3       1 SUB1        0.034
     34 C1'        16.5930  -13.0140   18.5500 C.3       1 SUB1       -0.014
     35 C2'        15.9410  -13.4250   17.1790 C.3       1 SUB1        0.030
     36 S1         15.7830  -14.9040   14.4580 S.3       1 SUB1        0.010
     37 O2         17.4880  -11.9220   16.2870 O.2       1 SUB1       -0.367
     38 C5         17.0590  -15.5830   13.5080 C.2       1 SUB1        0.020
     39 C2         16.8640  -13.5560   14.7390 C.2       1 SUB1        0.169
     40 C2'        16.8250  -12.9030   16.1070 C.2       1 SUB1        0.173
     41 C4         18.1460  -14.7340   13.4510 C.2       1 SUB1       -0.003
     42 N3         18.0490  -13.5540   14.1060 N.2       1 SUB1       -0.292
     43 H171       14.2502  -15.7309   23.2128 H         1 SUB1        0.170
     44 H181       15.5406  -15.7306   20.4540 H         1 SUB1        0.075
     45 H211       13.2448  -15.0593   20.4031 H         1 SUB1        0.031
     46 H212       14.2282  -13.5767   20.1552 H         1 SUB1        0.031
     47 H221       13.8542  -12.8648   22.4434 H         1 SUB1        0.028
     48 H222       13.0677  -14.4265   22.8546 H         1 SUB1        0.028
     49 H231       11.2977  -13.9262   21.1179 H         1 SUB1        0.050
     50 H232       12.0462  -12.3106   20.8810 H         1 SUB1        0.050
     51 H241       10.4447  -13.2347   23.1229 H         1 SUB1        0.198
     52 H261       12.8637  -10.8489   22.1643 H         1 SUB1        0.194
     53 H262       12.5507   -9.8197   23.5875 H         1 SUB1        0.194
     54 H271        9.9921  -12.0093   24.8369 H         1 SUB1        0.194
     55 H272       10.8839  -10.4934   25.1361 H         1 SUB1        0.194
     56 H21        18.1193  -17.7117   20.5321 H         1 SUB1        0.063
     57 H31        20.5259  -17.1770   20.6996 H         1 SUB1        0.059
     58 H41        21.4614  -16.3485   22.8242 H         1 SUB1        0.063
     59 H71        19.6116  -15.0870   27.0119 H         1 SUB1        0.046
     60 H81        17.2513  -15.8519   26.8935 H         1 SUB1        0.057
     61 H91        16.3235  -16.7866   24.8204 H         1 SUB1        0.047
     62 H121       22.9472  -14.0036   24.4664 H         1 SUB1        0.045
     63 H122       21.2961  -13.3061   24.3480 H         1 SUB1        0.045
     64 H123       21.8329  -14.5489   23.1673 H         1 SUB1        0.045
     65 H131       22.2975  -17.0231   26.1592 H         1 SUB1        0.045
     66 H132       23.3928  -15.6068   26.0140 H         1 SUB1        0.045
     67 H133       23.0717  -16.6444   24.5832 H         1 SUB1        0.045
     68 H291       16.3233  -14.8620   19.2574 H         1 SUB1        0.056
     69 H301       18.3722  -14.5617   17.7138 H         1 SUB1        0.029
     70 H302       18.6651  -15.4512   19.2467 H         1 SUB1        0.029
     71 H311       19.4311  -12.4784   18.6490 H         1 SUB1        0.027
     72 H312       20.5716  -13.8472   18.8776 H         1 SUB1        0.027
     73 H321       20.4071  -12.2579   20.9181 H         1 SUB1        0.029
     74 H322       20.0484  -13.9754   21.3029 H         1 SUB1        0.029
     75 H331       18.3862  -12.6760   22.4094 H         1 SUB1        0.052
     76 H332       18.0943  -11.6736   20.9477 H         1 SUB1        0.052
     77 H341       17.4466  -12.3553   18.3321 H         1 SUB1        0.031
     78 H342       15.8393  -12.4586   19.1274 H         1 SUB1        0.031
     79 H351       14.9375  -12.9835   17.0900 H         1 SUB1        0.049
     80 H352       15.8673  -14.5203   17.1085 H         1 SUB1        0.049
     81 H381       17.0111  -16.5545   13.0182 H         1 SUB1        0.081
     82 H411       19.0462  -15.0034   12.9005 H         1 SUB1        0.060
@<TRIPOS>BOND
     1   14    1 1  
     2    1   10 ar 
     3    1    2 ar 
     4    2    3 ar 
     5    3    4 ar 
     6    5    4 ar 
     7   10    5 ar 
     8    5    6 ar 
     9    6   11 1  
    10    6    7 ar 
    11    8    7 ar 
    12    9    8 ar 
    13   10    9 ar 
    14   11   13 1  
    15   11   12 1  
    16   14   16 2  
    17   14   15 2  
    18   19   18 1  
    19   18   21 1  
    20   18   17 1  
    21   21   22 1  
    22   22   23 1  
    23   23   24 1  
    24   24   25 1  
    25   25   26 1  
    26   25   27 1  
    27   19   20 2  
    28   28   33 1  
    29   29   28 1  
    30   34   29 1  
    31   29   30 1  
    32   30   31 1  
    33   31   32 1  
    34   33   32 1  
    35   35   34 1  
    36   39   36 1  
    37   36   38 1  
    38   41   38 2  
    39   42   41 1  
    40   39   42 2  
    41   40   39 1  
    42   40   37 2  
    43   17   14 1  
    44   28   19 am 
    45   40   35 1  
    46   17   43 1  
    47   18   44 1  
    48   21   45 1  
    49   21   46 1  
    50   22   47 1  
    51   22   48 1  
    52   23   49 1  
    53   23   50 1  
    54   24   51 1  
    55   26   52 1  
    56   26   53 1  
    57   27   54 1  
    58   27   55 1  
    59    2   56 1  
    60    3   57 1  
    61    4   58 1  
    62    7   59 1  
    63    8   60 1  
    64    9   61 1  
    65   12   62 1  
    66   12   63 1  
    67   12   64 1  
    68   13   65 1  
    69   13   66 1  
    70   13   67 1  
    71   29   68 1  
    72   30   69 1  
    73   30   70 1  
    74   31   71 1  
    75   31   72 1  
    76   32   73 1  
    77   32   74 1  
    78   33   75 1  
    79   33   76 1  
    80   34   77 1  
    81   34   78 1  
    82   35   79 1  
    83   35   80 1  
    84   38   81 1  
    85   41   82 1  
@<TRIPOS>SUBSTRUCTURE
     1 SUB1        1 GROUP

