### 
### Created by X-TOOL on Tue Oct 25 02:07:05 2005
### 

@<TRIPOS>MOLECULE
1a1c_ligand
   73    74     1     0     0
SMALL
GAST_HUCK


@<TRIPOS>ATOM
      1 H551       43.6652   -8.6935   43.1011 H         1 SUB1        0.080
      2 H581       43.5610   -7.2273   45.0952 H         1 SUB1        0.035
      3 H582       42.4654   -6.1104   44.2127 H         1 SUB1        0.035
      4 H591       44.6576   -5.2285   44.0296 H         1 SUB1        0.049
      5 H592       44.2365   -5.9479   42.4385 H         1 SUB1        0.049
      6 H361       42.8456   -9.9813   36.7102 H         1 SUB1        0.047
      7 H362       44.6278   -9.7577   36.7329 H         1 SUB1        0.047
      8 H363       43.6046   -8.7128   35.6898 H         1 SUB1        0.047
      9 H381       42.4925   -6.5595   39.4653 H         1 SUB1        0.082
     10 H411       40.2159   -6.7628   40.4436 H         1 SUB1        0.044
     11 H412       39.9939   -8.2780   39.5046 H         1 SUB1        0.044
     12 H431       39.4343   -8.1634   37.1687 H         1 SUB1       -0.021
     13 H441       40.6878   -4.6420   39.2048 H         1 SUB1       -0.021
     14 H451       38.7241   -6.7948   35.2591 H         1 SUB1       -0.018
     15 H461       39.9950   -3.2661   37.2881 H         1 SUB1       -0.018
     16 H651       42.8808  -10.9430   46.0014 H         1 SUB1        0.049
     17 H652       43.7138   -9.4063   45.5876 H         1 SUB1        0.049
     18 H653       43.5174  -10.6853   44.3416 H         1 SUB1        0.049
     19 H661       40.7173  -11.0568   45.9138 H         1 SUB1        0.052
     20 H662       39.7156   -9.7567   45.1837 H         1 SUB1        0.052
     21 H671       41.7654   -9.2941   47.4045 H         1 SUB1        0.029
     22 H672       40.0301   -9.6393   47.7146 H         1 SUB1        0.029
     23 H681       39.3999   -7.5429   46.6893 H         1 SUB1        0.027
     24 H682       41.1149   -7.2032   46.2767 H         1 SUB1        0.027
     25 H691       39.8762   -7.5575   48.9792 H         1 SUB1        0.030
     26 H701       39.4303   -5.3435   48.3384 H         1 SUB1        0.027
     27 H702       41.1102   -5.0965   47.7522 H         1 SUB1        0.027
     28 H711       42.7680   -7.4746   48.2152 H         1 SUB1        0.027
     29 H712       41.9252   -8.3874   49.5125 H         1 SUB1        0.027
     30 H721       42.3517   -6.6413   50.9463 H         1 SUB1        0.026
     31 H722       43.0427   -5.6654   49.6058 H         1 SUB1        0.026
     32 H731       40.1972   -5.8461   50.5851 H         1 SUB1        0.026
     33 H732       41.1518   -4.4084   50.0867 H         1 SUB1        0.026
     34 C          43.5190   -8.2430   37.7910 C.2       1 SUB1        0.175
     35 O          44.3230   -7.2900   37.9570 O.2       1 SUB1       -0.397
     36 CH3        43.6590   -9.2430   36.6520 C.3       1 SUB1        0.026
     37 N          42.3330   -8.3420   38.3950 N.am      1 SUB1       -0.264
     38 CA         41.9790   -7.5290   39.5450 C.3       1 SUB1        0.138
     39 C          42.3860   -8.1830   40.8420 C.2       1 SUB1        0.206
     40 O          42.5910   -9.3890   40.8830 O.2       1 SUB1       -0.394
     41 CB         40.5100   -7.3070   39.5340 C.3       1 SUB1       -0.000
     42 CG         40.1230   -6.4930   38.3120 C.ar      1 SUB1       -0.145
     43 CD1        39.5580   -7.0870   37.2010 C.ar      1 SUB1       -0.179
     44 CD2        40.2580   -5.1200   38.3320 C.ar      1 SUB1       -0.179
     45 CE1        39.1510   -6.3180   36.1340 C.ar      1 SUB1       -0.140
     46 CE2        39.8570   -4.3410   37.2630 C.ar      1 SUB1       -0.140
     47 CZ         39.2830   -4.9390   36.1700 C.ar      1 SUB1        0.074
     48 OH         38.8370   -4.1920   35.2070 O.3       1 SUB1       -0.110
     49 P          39.7940   -3.8520   33.8240 P.3       1 SUB1        0.476
     50 O1P        39.8700   -5.1270   33.1020 O.co2     1 SUB1       -0.376
     51 O2P        38.9180   -2.7610   33.3280 O.co2     1 SUB1       -0.376
     52 O3P        41.0570   -3.5150   34.5650 O.co2     1 SUB1       -0.376
     53 H371       41.6790   -8.9850   38.0510 H         1 SUB1        0.188
     54 N          42.4950   -7.4340   41.9040 N.am      1 SUB1       -0.263
     55 CA         42.8420   -7.9730   43.2160 C.3       1 SUB1        0.134
     56 C          41.6530   -8.6770   43.8690 C.2       1 SUB1        0.204
     57 O          40.5120   -8.3620   43.4900 O.2       1 SUB1       -0.394
     58 CB         43.2860   -6.8350   44.1050 C.3       1 SUB1       -0.001
     59 CG         44.4590   -6.1680   43.4930 C.3       1 SUB1       -0.010
     60 CD         45.6790   -7.0390   43.5640 C.2       1 SUB1        0.028
     61 OE1        45.9380   -7.6060   44.6290 O.co2     1 SUB1       -0.567
     62 OE2        46.3740   -7.1170   42.5580 O.co2     1 SUB1       -0.567
     63 H541       42.3380   -6.4710   41.8180 H         1 SUB1        0.188
     64 N          41.7790   -9.6160   44.8130 N.am      1 SUB1       -0.274
     65 CM         43.0500  -10.1980   45.2100 C.3       1 SUB1        0.023
     66 C3         40.6660   -9.9810   45.6900 C.3       1 SUB1        0.034
     67 C2         40.7430   -9.1770   47.0160 C.3       1 SUB1       -0.032
     68 C1         40.4450   -7.6970   46.9960 C.3       1 SUB1       -0.048
     69 C1'        40.6520   -7.1010   48.3470 C.3       1 SUB1       -0.041
     70 C2'        40.4800   -5.6460   48.4670 C.3       1 SUB1       -0.050
     71 C5'        41.9700   -7.4310   48.9710 C.3       1 SUB1       -0.050
     72 C4'        42.1810   -6.2700   49.9250 C.3       1 SUB1       -0.053
     73 C3'        40.9440   -5.4670   49.8720 C.3       1 SUB1       -0.053
@<TRIPOS>BOND
     1   55    1 1  
     2   58    2 1  
     3   58    3 1  
     4   59    4 1  
     5   59    5 1  
     6   36    6 1  
     7   36    7 1  
     8   36    8 1  
     9   38    9 1  
    10   41   10 1  
    11   41   11 1  
    12   43   12 1  
    13   44   13 1  
    14   45   14 1  
    15   46   15 1  
    16   65   16 1  
    17   65   17 1  
    18   65   18 1  
    19   66   19 1  
    20   66   20 1  
    21   67   21 1  
    22   67   22 1  
    23   68   23 1  
    24   68   24 1  
    25   69   25 1  
    26   70   26 1  
    27   70   27 1  
    28   71   28 1  
    29   71   29 1  
    30   72   30 1  
    31   72   31 1  
    32   73   32 1  
    33   73   33 1  
    34   34   35 2  
    35   34   36 1  
    36   37   53 1  
    37   38   37 1  
    38   38   41 1  
    39   39   38 1  
    40   39   40 2  
    41   41   42 1  
    42   42   44 ar 
    43   42   43 ar 
    44   43   45 ar 
    45   45   47 ar 
    46   47   48 1  
    47   46   47 ar 
    48   44   46 ar 
    49   48   49 1  
    50   49   52 2  
    51   49   51 2  
    52   49   50 2  
    53   56   55 1  
    54   55   58 1  
    55   55   54 1  
    56   54   63 1  
    57   58   59 1  
    58   59   60 1  
    59   60   61 2  
    60   60   62 2  
    61   56   57 2  
    62   64   66 1  
    63   64   65 1  
    64   66   67 1  
    65   67   68 1  
    66   68   69 1  
    67   69   71 1  
    68   69   70 1  
    69   70   73 1  
    70   73   72 1  
    71   71   72 1  
    72   37   34 am 
    73   54   39 am 
    74   56   64 am 
@<TRIPOS>SUBSTRUCTURE
     1 SUB1        1 GROUP

