1a1c_ligand
  -I-interpret- 

 73 74  0  0  0  0  0  0  0  0999 V2000
   43.6652   -8.6935   43.1011 H   0  0  0  0  0
   43.5610   -7.2273   45.0952 H   0  0  0  0  0
   42.4654   -6.1104   44.2127 H   0  0  0  0  0
   44.6576   -5.2285   44.0296 H   0  0  0  0  0
   44.2365   -5.9479   42.4385 H   0  0  0  0  0
   42.8456   -9.9813   36.7102 H   0  0  0  0  0
   44.6278   -9.7577   36.7329 H   0  0  0  0  0
   43.6046   -8.7128   35.6898 H   0  0  0  0  0
   42.4925   -6.5595   39.4653 H   0  0  0  0  0
   40.2159   -6.7628   40.4436 H   0  0  0  0  0
   39.9939   -8.2780   39.5046 H   0  0  0  0  0
   39.4343   -8.1634   37.1687 H   0  0  0  0  0
   40.6878   -4.6420   39.2048 H   0  0  0  0  0
   38.7241   -6.7948   35.2591 H   0  0  0  0  0
   39.9950   -3.2661   37.2881 H   0  0  0  0  0
   42.8808  -10.9430   46.0014 H   0  0  0  0  0
   43.7138   -9.4063   45.5876 H   0  0  0  0  0
   43.5174  -10.6853   44.3416 H   0  0  0  0  0
   40.7173  -11.0568   45.9138 H   0  0  0  0  0
   39.7156   -9.7567   45.1837 H   0  0  0  0  0
   41.7654   -9.2941   47.4045 H   0  0  0  0  0
   40.0301   -9.6393   47.7146 H   0  0  0  0  0
   39.3999   -7.5429   46.6893 H   0  0  0  0  0
   41.1149   -7.2032   46.2767 H   0  0  0  0  0
   39.8762   -7.5575   48.9792 H   0  0  0  0  0
   39.4303   -5.3435   48.3384 H   0  0  0  0  0
   41.1102   -5.0965   47.7522 H   0  0  0  0  0
   42.7680   -7.4746   48.2152 H   0  0  0  0  0
   41.9252   -8.3874   49.5125 H   0  0  0  0  0
   42.3517   -6.6413   50.9463 H   0  0  0  0  0
   43.0427   -5.6654   49.6058 H   0  0  0  0  0
   40.1972   -5.8461   50.5851 H   0  0  0  0  0
   41.1518   -4.4084   50.0867 H   0  0  0  0  0
   43.5190   -8.2430   37.7910 C   0  0  0  0  0
   44.3230   -7.2900   37.9570 O   0  0  0  0  0
   43.6590   -9.2430   36.6520 C   0  0  0  0  0
   42.3330   -8.3420   38.3950 N   0  0  0  0  0
   41.9790   -7.5290   39.5450 C   0  0  0  0  0
   42.3860   -8.1830   40.8420 C   0  0  0  0  0
   42.5910   -9.3890   40.8830 O   0  0  0  0  0
   40.5100   -7.3070   39.5340 C   0  0  0  0  0
   40.1230   -6.4930   38.3120 C   0  0  0  0  0
   39.5580   -7.0870   37.2010 C   0  0  0  0  0
   40.2580   -5.1200   38.3320 C   0  0  0  0  0
   39.1510   -6.3180   36.1340 C   0  0  0  0  0
   39.8570   -4.3410   37.2630 C   0  0  0  0  0
   39.2830   -4.9390   36.1700 C   0  0  0  0  0
   38.8370   -4.1920   35.2070 O   0  0  0  0  0
   39.7940   -3.8520   33.8240 P   0  0  0  0  0
   39.8700   -5.1270   33.1020 O   0  0  0  0  0
   38.9180   -2.7610   33.3280 O   0  5  0  0  0
   41.0570   -3.5150   34.5650 O   0  5  0  0  0
   41.6790   -8.9850   38.0510 H   0  0  0  0  0
   42.4950   -7.4340   41.9040 N   0  0  0  0  0
   42.8420   -7.9730   43.2160 C   0  0  0  0  0
   41.6530   -8.6770   43.8690 C   0  0  0  0  0
   40.5120   -8.3620   43.4900 O   0  0  0  0  0
   43.2860   -6.8350   44.1050 C   0  0  0  0  0
   44.4590   -6.1680   43.4930 C   0  0  0  0  0
   45.6790   -7.0390   43.5640 C   0  0  0  0  0
   45.9380   -7.6060   44.6290 O   0  5  0  0  0
   46.3740   -7.1170   42.5580 O   0  0  0  0  0
   42.3380   -6.4710   41.8180 H   0  0  0  0  0
   41.7790   -9.6160   44.8130 N   0  0  0  0  0
   43.0500  -10.1980   45.2100 C   0  0  0  0  0
   40.6660   -9.9810   45.6900 C   0  0  0  0  0
   40.7430   -9.1770   47.0160 C   0  0  0  0  0
   40.4450   -7.6970   46.9960 C   0  0  0  0  0
   40.6520   -7.1010   48.3470 C   0  0  0  0  0
   40.4800   -5.6460   48.4670 C   0  0  0  0  0
   41.9700   -7.4310   48.9710 C   0  0  0  0  0
   42.1810   -6.2700   49.9250 C   0  0  0  0  0
   40.9440   -5.4670   49.8720 C   0  0  0  0  0
 55  1  1  0  0  0
 58  2  1  0  0  0
 58  3  1  0  0  0
 59  4  1  0  0  0
 59  5  1  0  0  0
 36  6  1  0  0  0
 36  7  1  0  0  0
 36  8  1  0  0  0
 38  9  1  0  0  0
 41 10  1  0  0  0
 41 11  1  0  0  0
 43 12  1  0  0  0
 44 13  1  0  0  0
 45 14  1  0  0  0
 46 15  1  0  0  0
 65 16  1  0  0  0
 65 17  1  0  0  0
 65 18  1  0  0  0
 66 19  1  0  0  0
 66 20  1  0  0  0
 67 21  1  0  0  0
 67 22  1  0  0  0
 68 23  1  0  0  0
 68 24  1  0  0  0
 69 25  1  0  0  0
 70 26  1  0  0  0
 70 27  1  0  0  0
 71 28  1  0  0  0
 71 29  1  0  0  0
 72 30  1  0  0  0
 72 31  1  0  0  0
 73 32  1  0  0  0
 73 33  1  0  0  0
 34 35  2  0  0  0
 34 36  1  0  0  0
 37 53  1  0  0  0
 38 37  1  0  0  0
 38 41  1  0  0  0
 39 38  1  0  0  0
 39 40  2  0  0  0
 41 42  1  0  0  0
 42 44  4  0  0  0
 42 43  4  0  0  0
 43 45  4  0  0  0
 45 47  4  0  0  0
 47 48  1  0  0  0
 46 47  4  0  0  0
 44 46  4  0  0  0
 48 49  1  0  0  0
 49 52  1  0  0  0
 49 51  1  0  0  0
 49 50  2  0  0  0
 56 55  1  0  0  0
 55 58  1  0  0  0
 55 54  1  0  0  0
 54 63  1  0  0  0
 58 59  1  0  0  0
 59 60  1  0  0  0
 60 61  1  0  0  0
 60 62  2  0  0  0
 56 57  2  0  0  0
 64 66  1  0  0  0
 64 65  1  0  0  0
 66 67  1  0  0  0
 67 68  1  0  0  0
 68 69  1  0  0  0
 69 71  1  0  0  0
 69 70  1  0  0  0
 70 73  1  0  0  0
 73 72  1  0  0  0
 71 72  1  0  0  0
 37 34  1  0  0  0
 54 39  1  0  0  0
 56 64  1  0  0  0
M  END
$$$$
