1f4g_ligand
  -I-interpret- 

 56 57  0  0  0  0  0  0  0  0999 V2000
   16.1242   13.0052   29.4214 H   0  0  0  0  0
   14.9186   13.5080   30.6545 H   0  0  0  0  0
   17.9772   13.7849   30.7321 H   0  0  0  0  0
   16.8572   13.3080   32.0531 H   0  0  0  0  0
   14.8585   16.0789   31.2518 H   0  0  0  0  0
   14.8086   15.2825   28.9523 H   0  0  0  0  0
   16.5977   15.3448   28.8049 H   0  0  0  0  0
   14.2819   18.1111   30.0914 H   0  0  0  0  0
   14.3352   15.6715   33.2037 H   0  0  0  0  0
   12.7532   14.5948   34.8015 H   0  0  0  0  0
   16.0933   13.2768   37.2013 H   0  0  0  0  0
   17.6773   14.3444   35.5845 H   0  0  0  0  0
   14.7897   12.7976   38.4370 H   0  0  0  0  0
   11.8185   12.1748   38.7675 H   0  0  0  0  0
   12.1336   10.0011   39.2024 H   0  0  0  0  0
   13.5698   10.3270   40.2309 H   0  0  0  0  0
   14.7980   10.6177   37.8879 H   0  0  0  0  0
   13.4211    9.6333   37.2866 H   0  0  0  0  0
   14.4725   20.2837   29.3578 H   0  0  0  0  0
   16.2488   20.2258   29.6190 H   0  0  0  0  0
   15.7665   20.1664   32.1470 H   0  0  0  0  0
   14.0494   20.5143   31.7504 H   0  0  0  0  0
   15.8620   13.7790   30.1580 C   0  0  0  0  0
   16.9920   13.9700   31.1850 C   0  0  0  0  0
   16.8370   15.3840   31.5640 N   0  0  0  0  0
   15.8290   16.0880   30.7340 C   0  0  0  0  0
   15.7590   15.1630   29.4930 C   0  0  0  0  0
   16.1610   17.5860   30.4220 C   0  0  0  0  0
   17.3600   17.8920   30.3700 O   0  0  0  0  0
   15.2010   18.4940   30.1840 N   0  0  0  0  0
   17.0960   15.8630   33.1930 S   0  0  0  0  0
   16.0530   15.0270   34.3300 C   0  0  0  0  0
   18.6050   15.6420   33.5640 O   0  0  0  0  0
   16.6690   17.3750   33.2680 O   0  0  0  0  0
   14.6990   15.1390   34.0750 C   0  0  0  0  0
   13.8230   14.5480   34.9700 C   0  0  0  0  0
   14.3380   13.8840   36.1040 C   0  0  0  0  0
   15.7170   13.7990   36.3290 C   0  0  0  0  0
   16.6050   14.3860   35.4310 C   0  0  0  0  0
   13.3490   13.2270   37.0480 C   0  0  0  0  0
   13.8210   12.7210   38.2010 N   0  0  0  0  0
   12.8470   12.0330   39.1310 C   0  0  0  0  0
   13.1060   10.5130   39.2510 C   0  0  0  0  0
   14.0190    9.8950   38.1720 C   0  0  0  0  0
   14.6720    8.6310   38.7460 C   0  0  0  0  0
   12.1810   13.0390   36.6770 O   0  0  0  0  0
   13.0430   12.7980   40.4880 C   0  0  0  0  0
   12.1320   12.7460   41.3150 O   0  0  0  0  0
   14.1400   13.3790   40.6250 O   0  5  0  0  0
   15.1840    8.6400   39.8870 O   0  5  0  0  0
   14.6830    7.5930   38.0580 O   0  0  0  0  0
   15.2700   19.9480   30.0370 C   0  0  0  0  0
   15.0900   20.6270   31.4120 C   0  0  0  0  0
   15.4300   22.1250   31.2540 C   0  0  0  0  0
   14.5320   22.9560   31.5020 O   0  5  0  0  0
   16.5810   22.4080   30.8770 O   0  0  0  0  0
 23  1  1  0  0  0
 23  2  1  0  0  0
 24  3  1  0  0  0
 24  4  1  0  0  0
 26  5  1  0  0  0
 27  6  1  0  0  0
 27  7  1  0  0  0
 30  8  1  0  0  0
 35  9  1  0  0  0
 36 10  1  0  0  0
 38 11  1  0  0  0
 39 12  1  0  0  0
 41 13  1  0  0  0
 42 14  1  0  0  0
 43 15  1  0  0  0
 43 16  1  0  0  0
 44 17  1  0  0  0
 44 18  1  0  0  0
 52 19  1  0  0  0
 52 20  1  0  0  0
 53 21  1  0  0  0
 53 22  1  0  0  0
 27 23  1  0  0  0
 24 23  1  0  0  0
 25 24  1  0  0  0
 31 25  1  0  0  0
 25 26  1  0  0  0
 26 28  1  0  0  0
 26 27  1  0  0  0
 28 30  1  0  0  0
 28 29  2  0  0  0
 30 52  1  0  0  0
 52 53  1  0  0  0
 53 54  1  0  0  0
 54 56  2  0  0  0
 54 55  1  0  0  0
 31 34  2  0  0  0
 31 33  2  0  0  0
 32 31  1  0  0  0
 39 32  4  0  0  0
 35 32  4  0  0  0
 36 35  4  0  0  0
 37 36  4  0  0  0
 40 37  1  0  0  0
 37 38  4  0  0  0
 38 39  4  0  0  0
 40 46  2  0  0  0
 41 40  1  0  0  0
 42 41  1  0  0  0
 42 47  1  0  0  0
 43 42  1  0  0  0
 43 44  1  0  0  0
 44 45  1  0  0  0
 45 51  2  0  0  0
 45 50  1  0  0  0
 47 49  1  0  0  0
 47 48  2  0  0  0
M  END
$$$$
