### 
### Created by X-TOOL on Mon Oct 24 22:35:46 2005
### 

@<TRIPOS>MOLECULE
1f4g_ligand
   56    57     1     0     0
SMALL
GAST_HUCK


@<TRIPOS>ATOM
      1 H231       16.1242   13.0052   29.4214 H         1 SUB1        0.028
      2 H232       14.9186   13.5080   30.6545 H         1 SUB1        0.028
      3 H241       17.9772   13.7849   30.7321 H         1 SUB1        0.048
      4 H242       16.8572   13.3080   32.0531 H         1 SUB1        0.048
      5 H261       14.8585   16.0789   31.2518 H         1 SUB1        0.076
      6 H271       14.8086   15.2825   28.9523 H         1 SUB1        0.031
      7 H272       16.5977   15.3448   28.8049 H         1 SUB1        0.031
      8 H301       14.2819   18.1111   30.0914 H         1 SUB1        0.185
      9 H351       14.3352   15.6715   33.2037 H         1 SUB1        0.065
     10 H361       12.7532   14.5948   34.8015 H         1 SUB1        0.067
     11 H381       16.0933   13.2768   37.2013 H         1 SUB1        0.067
     12 H391       17.6773   14.3444   35.5845 H         1 SUB1        0.065
     13 H411       14.7897   12.7976   38.4370 H         1 SUB1        0.189
     14 H421       11.8185   12.1748   38.7675 H         1 SUB1        0.078
     15 H431       12.1336   10.0011   39.2024 H         1 SUB1        0.036
     16 H432       13.5698   10.3270   40.2309 H         1 SUB1        0.036
     17 H441       14.7980   10.6177   37.8879 H         1 SUB1        0.049
     18 H442       13.4211    9.6333   37.2866 H         1 SUB1        0.049
     19 H521       14.4725   20.2837   29.3578 H         1 SUB1        0.056
     20 H522       16.2488   20.2258   29.6190 H         1 SUB1        0.056
     21 H531       15.7665   20.1664   32.1470 H         1 SUB1        0.050
     22 H532       14.0494   20.5143   31.7504 H         1 SUB1        0.050
     23 C1         15.8620   13.7790   30.1580 C.3       1 SUB1       -0.032
     24 C2         16.9920   13.9700   31.1850 C.3       1 SUB1        0.033
     25 N3         16.8370   15.3840   31.5640 N.am      1 SUB1       -0.212
     26 C4         15.8290   16.0880   30.7340 C.3       1 SUB1        0.129
     27 C5         15.7590   15.1630   29.4930 C.3       1 SUB1       -0.014
     28 C6         16.1610   17.5860   30.4220 C.2       1 SUB1        0.198
     29 O7         17.3600   17.8920   30.3700 O.2       1 SUB1       -0.395
     30 N8         15.2010   18.4940   30.1840 N.am      1 SUB1       -0.282
     31 S9         17.0960   15.8630   33.1930 S.o2      1 SUB1        0.075
     32 C10        16.0530   15.0270   34.3300 C.ar      1 SUB1        0.113
     33 O11        18.6050   15.6420   33.5640 O.2       1 SUB1       -0.149
     34 O12        16.6690   17.3750   33.2680 O.2       1 SUB1       -0.149
     35 C13        14.6990   15.1390   34.0750 C.ar      1 SUB1       -0.030
     36 C14        13.8230   14.5480   34.9700 C.ar      1 SUB1       -0.040
     37 C15        14.3380   13.8840   36.1040 C.ar      1 SUB1        0.050
     38 C16        15.7170   13.7990   36.3290 C.ar      1 SUB1       -0.040
     39 C17        16.6050   14.3860   35.4310 C.ar      1 SUB1       -0.030
     40 C18        13.3490   13.2270   37.0480 C.2       1 SUB1        0.208
     41 N19        13.8210   12.7210   38.2010 N.am      1 SUB1       -0.269
     42 C20        12.8470   12.0330   39.1310 C.3       1 SUB1        0.084
     43 C21        13.1060   10.5130   39.2510 C.3       1 SUB1       -0.007
     44 C22        14.0190    9.8950   38.1720 C.3       1 SUB1       -0.009
     45 C23        14.6720    8.6310   38.7460 C.2       1 SUB1        0.028
     46 O24        12.1810   13.0390   36.6770 O.2       1 SUB1       -0.384
     47 C25        13.0430   12.7980   40.4880 C.2       1 SUB1        0.053
     48 O26        12.1320   12.7460   41.3150 O.co2     1 SUB1       -0.564
     49 O27        14.1400   13.3790   40.6250 O.co2     1 SUB1       -0.564
     50 O28        15.1840    8.6400   39.8870 O.co2     1 SUB1       -0.567
     51 O29        14.6830    7.5930   38.0580 O.co2     1 SUB1       -0.567
     52 C30        15.2700   19.9480   30.0370 C.3       1 SUB1        0.042
     53 C31        15.0900   20.6270   31.4120 C.3       1 SUB1        0.006
     54 C32        15.4300   22.1250   31.2540 C.2       1 SUB1        0.030
     55 O33        14.5320   22.9560   31.5020 O.co2     1 SUB1       -0.567
     56 O34        16.5810   22.4080   30.8770 O.co2     1 SUB1       -0.567
@<TRIPOS>BOND
     1   23    1 1  
     2   23    2 1  
     3   24    3 1  
     4   24    4 1  
     5   26    5 1  
     6   27    6 1  
     7   27    7 1  
     8   30    8 1  
     9   35    9 1  
    10   36   10 1  
    11   38   11 1  
    12   39   12 1  
    13   41   13 1  
    14   42   14 1  
    15   43   15 1  
    16   43   16 1  
    17   44   17 1  
    18   44   18 1  
    19   52   19 1  
    20   52   20 1  
    21   53   21 1  
    22   53   22 1  
    23   27   23 1  
    24   24   23 1  
    25   25   24 1  
    26   31   25 1  
    27   25   26 1  
    28   26   28 1  
    29   26   27 1  
    30   28   30 am 
    31   28   29 2  
    32   30   52 1  
    33   52   53 1  
    34   53   54 1  
    35   54   56 2  
    36   54   55 2  
    37   31   34 2  
    38   31   33 2  
    39   32   31 1  
    40   39   32 ar 
    41   35   32 ar 
    42   36   35 ar 
    43   37   36 ar 
    44   40   37 1  
    45   37   38 ar 
    46   38   39 ar 
    47   40   46 2  
    48   41   40 am 
    49   42   41 1  
    50   42   47 1  
    51   43   42 1  
    52   43   44 1  
    53   44   45 1  
    54   45   51 2  
    55   45   50 2  
    56   47   49 2  
    57   47   48 2  
@<TRIPOS>SUBSTRUCTURE
     1 SUB1        1 GROUP

