2gl0_ligand
  -I-interpret- 

 32 34  0  0  0  0  0  0  0  0999 V2000
   18.6640   18.0410   12.2420 O   0  0  0  0  0
   18.0650   19.2950   11.9860 C   0  0  0  0  0
   17.1780   18.8790   10.8360 C   0  0  0  0  0
   15.9370   18.4640   11.3880 O   0  0  0  0  0
   16.8200   20.0210    9.9220 C   0  0  0  0  0
   17.6380   19.8210    8.8030 O   0  0  0  0  0
   15.3300   19.8540    9.6280 C   0  0  0  0  0
   15.0560   18.7430    8.8310 O   0  0  0  0  0
   14.8340   19.1950   10.8240 C   0  0  0  0  0
   14.3520   20.2020   11.7710 N   0  0  0  0  0
   15.0600   21.1970   12.3440 C   0  0  0  0  0
   14.2660   21.9180   13.1750 N   0  0  0  0  0
   13.0370   21.3850   13.1270 C   0  0  0  0  0
   11.7380   21.6960   13.7580 C   0  0  0  0  0
   11.5950   22.7330   14.6620 N   0  0  0  0  0
   10.7150   20.8500   13.3990 N   0  0  0  0  0
   10.8640   19.8180   12.5150 C   0  0  0  0  0
   11.9900   19.4770   11.9120 N   0  0  0  0  0
   13.0870   20.2290   12.2010 C   0  0  0  0  0
   17.9835   17.4029   12.4686 H   0  0  0  0  0
   18.7577   20.1087   11.7713 H   0  0  0  0  0
   17.5502   19.7487   12.8329 H   0  0  0  0  0
   17.7182   18.1152   10.2767 H   0  0  0  0  0
   16.9731   21.0296   10.3058 H   0  0  0  0  0
   17.4406   18.9666    8.4124 H   0  0  0  0  0
   14.9634   20.8106    9.2557 H   0  0  0  0  0
   15.3577   17.9483    9.2771 H   0  0  0  0  0
   14.0071   18.5228   10.5950 H   0  0  0  0  0
   16.1172   21.3934   12.1652 H   0  0  0  0  0
   12.4001   23.3081   14.9100 H   0  0  0  0  0
   10.6844   22.9226   15.0807 H   0  0  0  0  0
    9.9780   19.2251   12.2877 H   0  0  0  0  0
  1  2  1  0  0  0
  2  3  1  0  0  0
  3  4  1  0  0  0
  3  5  1  0  0  0
  4  9  1  0  0  0
  5  6  1  0  0  0
  5  7  1  0  0  0
  7  8  1  0  0  0
  7  9  1  0  0  0
  9 10  1  0  0  0
 10 11  1  0  0  0
 10 19  1  0  0  0
 11 12  2  0  0  0
 12 13  1  0  0  0
 13 14  4  0  0  0
 13 19  4  0  0  0
 14 15  1  0  0  0
 14 16  4  0  0  0
 16 17  4  0  0  0
 17 18  4  0  0  0
 18 19  4  0  0  0
  1 20  1  0  0  0
  2 21  1  0  0  0
  2 22  1  0  0  0
  3 23  1  0  0  0
  5 24  1  0  0  0
  6 25  1  0  0  0
  7 26  1  0  0  0
  8 27  1  0  0  0
  9 28  1  0  0  0
 11 29  1  0  0  0
 15 30  1  0  0  0
 15 31  1  0  0  0
 17 32  1  0  0  0
M  END
$$$$
