### 
### Created by X-TOOL on Sun Jun  3 12:36:26 2007
### 

@<TRIPOS>MOLECULE
2gl0_ligand
   32    34     1     0     0
SMALL
GAST_HUCK


@<TRIPOS>ATOM
      1 O5         18.6640   18.0410   12.2420 O.3       1 SUB1       -0.392
      2 C5         18.0650   19.2950   11.9860 C.3       1 SUB1        0.073
      3 C4         17.1780   18.8790   10.8360 C.3       1 SUB1        0.113
      4 O4         15.9370   18.4640   11.3880 O.3       1 SUB1       -0.337
      5 C3         16.8200   20.0210    9.9220 C.3       1 SUB1        0.115
      6 O3         17.6380   19.8210    8.8030 O.3       1 SUB1       -0.386
      7 C2         15.3300   19.8540    9.6280 C.3       1 SUB1        0.139
      8 O2         15.0560   18.7430    8.8310 O.3       1 SUB1       -0.384
      9 C1         14.8340   19.1950   10.8240 C.3       1 SUB1        0.201
     10 N9         14.3520   20.2020   11.7710 N.pl3     1 SUB1       -0.192
     11 C8         15.0600   21.1970   12.3440 C.2       1 SUB1        0.112
     12 N7         14.2660   21.9180   13.1750 N.2       1 SUB1       -0.296
     13 C5         13.0370   21.3850   13.1270 C.ar      1 SUB1        0.105
     14 C6         11.7380   21.6960   13.7580 C.ar      1 SUB1        0.130
     15 N6         11.5950   22.7330   14.6620 N.pl3     1 SUB1       -0.315
     16 N1         10.7150   20.8500   13.3990 N.ar      1 SUB1       -0.270
     17 C2         10.8640   19.8180   12.5150 C.ar      1 SUB1        0.053
     18 N3         11.9900   19.4770   11.9120 N.ar      1 SUB1       -0.271
     19 C4         13.0870   20.2290   12.2010 C.ar      1 SUB1        0.161
     20 H          17.9835   17.4029   12.4686 H         1 SUB1        0.209
     21 H          18.7577   20.1087   11.7713 H         1 SUB1        0.058
     22 H          17.5502   19.7487   12.8329 H         1 SUB1        0.058
     23 H          17.7182   18.1152   10.2767 H         1 SUB1        0.065
     24 H          16.9731   21.0296   10.3058 H         1 SUB1        0.065
     25 H          17.4406   18.9666    8.4124 H         1 SUB1        0.210
     26 H          14.9634   20.8106    9.2557 H         1 SUB1        0.068
     27 H          15.3577   17.9483    9.2771 H         1 SUB1        0.210
     28 H          14.0071   18.5228   10.5950 H         1 SUB1        0.100
     29 H          16.1172   21.3934   12.1652 H         1 SUB1        0.135
     30 H          12.4001   23.3081   14.9100 H         1 SUB1        0.182
     31 H          10.6844   22.9226   15.0807 H         1 SUB1        0.182
     32 H           9.9780   19.2251   12.2877 H         1 SUB1        0.100
@<TRIPOS>BOND
     1    1    2 1  
     2    2    3 1  
     3    3    4 1  
     4    3    5 1  
     5    4    9 1  
     6    5    6 1  
     7    5    7 1  
     8    7    8 1  
     9    7    9 1  
    10    9   10 1  
    11   10   11 1  
    12   10   19 1  
    13   11   12 2  
    14   12   13 1  
    15   13   14 ar 
    16   13   19 ar 
    17   14   15 1  
    18   14   16 ar 
    19   16   17 ar 
    20   17   18 ar 
    21   18   19 ar 
    22    1   20 1  
    23    2   21 1  
    24    2   22 1  
    25    3   23 1  
    26    5   24 1  
    27    6   25 1  
    28    7   26 1  
    29    8   27 1  
    30    9   28 1  
    31   11   29 1  
    32   15   30 1  
    33   15   31 1  
    34   17   32 1  
@<TRIPOS>SUBSTRUCTURE
     1 SUB1        1 GROUP

