1ct8_ligand
  -I-interpret- 

 55 56  0  0  0  0  0  0  0  0999 V2000
   61.2329   30.9745   31.3545 H   0  0  0  0  0
   60.9125   29.3402   33.1476 H   0  0  0  0  0
   63.3179   28.4997   29.6778 H   0  0  0  0  0
   62.0540   27.6140   34.4238 H   0  0  0  0  0
   64.5144   26.7188   30.9882 H   0  0  0  0  0
   64.2717   26.4111   34.6713 H   0  0  0  0  0
   57.2313   30.3250   29.3773 H   0  0  0  0  0
   56.2776   32.5837   28.9729 H   0  0  0  0  0
   57.5270   31.7758   31.6789 H   0  0  0  0  0
   55.8546   31.4790   31.0944 H   0  0  0  0  0
   55.9839   33.2514   32.5847 H   0  0  0  0  0
   58.9668   33.5146   29.5872 H   0  0  0  0  0
   59.4571   35.4798   29.5176 H   0  0  0  0  0
   56.0634   29.9388   27.3789 H   0  0  0  0  0
   59.6553   32.2548   27.4545 H   0  0  0  0  0
   56.1995   29.8271   24.9368 H   0  0  0  0  0
   59.8012   32.1534   24.9973 H   0  0  0  0  0
   65.0330   24.5750   35.6880 F   0  0  0  0  0
   66.7840   24.7680   34.2370 F   0  0  0  0  0
   65.5050   22.9310   34.1260 F   0  0  0  0  0
   59.0390   36.1050   27.2630 Cl  0  0  0  0  0
   57.9370   37.2690   29.7060 Cl  0  0  0  0  0
   59.6710   29.6930   30.2390 P   0  0  0  0  0
   59.1360   31.1000   29.6780 O   0  0  0  0  0
   59.7220   28.6960   29.1910 O   0  0  0  0  0
   58.8370   29.3040   31.4270 O   0  5  0  0  0
   61.2770   30.1090   30.6770 C   0  0  0  0  0
   62.0410   29.0300   31.3560 C   0  0  0  0  0
   61.7030   28.7660   32.6780 C   0  0  0  0  0
   63.0570   28.3010   30.7110 C   0  0  0  0  0
   62.3420   27.8030   33.3960 C   0  0  0  0  0
   63.3690   27.0570   32.8110 C   0  0  0  0  0
   63.7270   27.3010   31.4530 C   0  0  0  0  0
   64.1250   26.1400   33.7200 N   0  0  0  0  0
   64.6080   24.9730   33.2980 C   0  0  0  0  0
   64.4920   24.4900   32.1670 O   0  0  0  0  0
   65.4890   24.2770   34.3790 C   0  0  0  0  0
   57.8250   31.1850   29.0340 C   0  0  0  0  0
   57.1850   32.4170   29.5720 C   0  0  0  0  0
   56.6940   32.1900   31.0920 C   0  0  0  0  0
   56.2660   33.4180   31.6930 O   0  0  0  0  0
   57.9860   33.5890   29.4070 N   0  0  0  0  0
   57.5180   34.7540   29.0350 C   0  0  0  0  0
   56.3360   34.9730   28.7820 O   0  0  0  0  0
   58.5690   35.8120   28.9600 C   0  0  0  0  0
   57.8470   31.0960   27.5440 C   0  0  0  0  0
   56.8800   30.4200   26.8530 C   0  0  0  0  0
   58.9010   31.7230   26.8860 C   0  0  0  0  0
   56.9570   30.3600   25.5000 C   0  0  0  0  0
   58.0210   30.9900   24.8280 C   0  0  0  0  0
   58.9850   31.6680   25.5200 C   0  0  0  0  0
   58.1100   30.9530   23.4030 N   0  0  0  0  0
   58.9130   31.7220   22.8550 O   0  0  0  0  0
   57.3770   30.1790   22.7570 O   0  0  0  0  0
   61.8195   30.3873   29.7614 H   0  0  0  0  0
 45 22  1  0  0  0
 45 21  1  0  0  0
 37 18  1  0  0  0
 37 19  1  0  0  0
 37 20  1  0  0  0
 27  1  1  0  0  0
 29  2  1  0  0  0
 30  3  1  0  0  0
 31  4  1  0  0  0
 33  5  1  0  0  0
 34  6  1  0  0  0
 38  7  1  0  0  0
 39  8  1  0  0  0
 40  9  1  0  0  0
 40 10  1  0  0  0
 41 11  1  0  0  0
 42 12  1  0  0  0
 45 13  1  0  0  0
 47 14  1  0  0  0
 48 15  1  0  0  0
 49 16  1  0  0  0
 51 17  1  0  0  0
 27 23  1  0  0  0
 23 26  1  0  0  0
 23 25  2  0  0  0
 23 24  1  0  0  0
 24 38  1  0  0  0
 38 46  1  0  0  0
 38 39  1  0  0  0
 39 42  1  0  0  0
 39 40  1  0  0  0
 40 41  1  0  0  0
 42 43  1  0  0  0
 43 45  1  0  0  0
 43 44  2  0  0  0
 46 48  4  0  0  0
 46 47  4  0  0  0
 47 49  4  0  0  0
 49 50  4  0  0  0
 50 52  1  0  0  0
 51 50  4  0  0  0
 48 51  4  0  0  0
 52 54  2  0  0  0
 52 53  2  0  0  0
 28 27  1  0  0  0
 30 28  4  0  0  0
 29 28  4  0  0  0
 31 29  4  0  0  0
 32 31  4  0  0  0
 34 32  1  0  0  0
 32 33  4  0  0  0
 33 30  4  0  0  0
 35 34  1  0  0  0
 35 37  1  0  0  0
 35 36  2  0  0  0
 27 55  1  0  0  0
M  END
$$$$
