### 
### Created by X-TOOL on Tue Oct 25 01:26:30 2005
### 

@<TRIPOS>MOLECULE
1ct8_ligand
   55    56     1     0     0
SMALL
GAST_HUCK


@<TRIPOS>ATOM
      1 H271       61.2329   30.9745   31.3545 H         1 SUB1        0.046
      2 H291       60.9125   29.3402   33.1476 H         1 SUB1        0.052
      3 H301       63.3179   28.4997   29.6778 H         1 SUB1        0.052
      4 H311       62.0540   27.6140   34.4238 H         1 SUB1        0.049
      5 H331       64.5144   26.7188   30.9882 H         1 SUB1        0.049
      6 H341       64.2717   26.4111   34.6713 H         1 SUB1        0.226
      7 H381       57.2313   30.3250   29.3773 H         1 SUB1        0.085
      8 H391       56.2776   32.5837   28.9729 H         1 SUB1        0.063
      9 H401       57.5270   31.7758   31.6789 H         1 SUB1        0.058
     10 H402       55.8546   31.4790   31.0944 H         1 SUB1        0.058
     11 H411       55.9839   33.2514   32.5847 H         1 SUB1        0.209
     12 H421       58.9668   33.5146   29.5872 H         1 SUB1        0.186
     13 H451       59.4571   35.4798   29.5176 H         1 SUB1        0.088
     14 H471       56.0634   29.9388   27.3789 H         1 SUB1        0.058
     15 H481       59.6553   32.2548   27.4545 H         1 SUB1        0.058
     16 H491       56.1995   29.8271   24.9368 H         1 SUB1        0.068
     17 H511       59.8012   32.1534   24.9973 H         1 SUB1        0.068
     18 F1         65.0330   24.5750   35.6880 F         1 SUB1       -0.170
     19 F2         66.7840   24.7680   34.2370 F         1 SUB1       -0.170
     20 F3         65.5050   22.9310   34.1260 F         1 SUB1       -0.170
     21 CL1        59.0390   36.1050   27.2630 Cl        1 SUB1       -0.080
     22 CL2        57.9370   37.2690   29.7060 Cl        1 SUB1       -0.080
     23 P1         59.6710   29.6930   30.2390 P.3       1 SUB1        0.137
     24 O1         59.1360   31.1000   29.6780 O.3       1 SUB1       -0.311
     25 O2         59.7220   28.6960   29.1910 O.co2     1 SUB1       -0.543
     26 O3         58.8370   29.3040   31.4270 O.co2     1 SUB1       -0.543
     27 C1         61.2770   30.1090   30.6770 C.3       1 SUB1        0.030
     28 C2         62.0410   29.0300   31.3560 C.ar      1 SUB1       -0.051
     29 C3         61.7030   28.7660   32.6780 C.ar      1 SUB1       -0.072
     30 C7         63.0570   28.3010   30.7110 C.ar      1 SUB1       -0.072
     31 C4         62.3420   27.8030   33.3960 C.ar      1 SUB1       -0.046
     32 C5         63.3690   27.0570   32.8110 C.ar      1 SUB1        0.062
     33 C6         63.7270   27.3010   31.4530 C.ar      1 SUB1       -0.046
     34 N1         64.1250   26.1400   33.7200 N.am      1 SUB1       -0.229
     35 C8         64.6080   24.9730   33.2980 C.2       1 SUB1        0.324
     36 O4         64.4920   24.4900   32.1670 O.2       1 SUB1       -0.328
     37 C9         65.4890   24.2770   34.3790 C.3       1 SUB1        0.480
     38 C10        57.8250   31.1850   29.0340 C.3       1 SUB1        0.137
     39 C11        57.1850   32.4170   29.5720 C.3       1 SUB1        0.106
     40 C12        56.6940   32.1900   31.0920 C.3       1 SUB1        0.072
     41 O5         56.2660   33.4180   31.6930 O.3       1 SUB1       -0.393
     42 N2         57.9860   33.5890   29.4070 N.am      1 SUB1       -0.274
     43 C13        57.5180   34.7540   29.0350 C.2       1 SUB1        0.210
     44 O6         56.3360   34.9730   28.7820 O.2       1 SUB1       -0.394
     45 C14        58.5690   35.8120   28.9600 C.3       1 SUB1        0.196
     46 C15        57.8470   31.0960   27.5440 C.ar      1 SUB1       -0.002
     47 C16        56.8800   30.4200   26.8530 C.ar      1 SUB1       -0.049
     48 C20        58.9010   31.7230   26.8860 C.ar      1 SUB1       -0.049
     49 C17        56.9570   30.3600   25.5000 C.ar      1 SUB1       -0.025
     50 C18        58.0210   30.9900   24.8280 C.ar      1 SUB1        0.192
     51 C19        58.9850   31.6680   25.5200 C.ar      1 SUB1       -0.025
     52 N3         58.1100   30.9530   23.4030 N.2       1 SUB1        0.310
     53 O7         58.9130   31.7220   22.8550 O.2       1 SUB1        0.175
     54 O8         57.3770   30.1790   22.7570 O.2       1 SUB1        0.175
     55 H272       61.8195   30.3873   29.7614 H         1 SUB1        0.046
@<TRIPOS>BOND
     1   45   22 1  
     2   45   21 1  
     3   37   18 1  
     4   37   19 1  
     5   37   20 1  
     6   27    1 1  
     7   29    2 1  
     8   30    3 1  
     9   31    4 1  
    10   33    5 1  
    11   34    6 1  
    12   38    7 1  
    13   39    8 1  
    14   40    9 1  
    15   40   10 1  
    16   41   11 1  
    17   42   12 1  
    18   45   13 1  
    19   47   14 1  
    20   48   15 1  
    21   49   16 1  
    22   51   17 1  
    23   27   23 1  
    24   23   26 2  
    25   23   25 2  
    26   23   24 1  
    27   24   38 1  
    28   38   46 1  
    29   38   39 1  
    30   39   42 1  
    31   39   40 1  
    32   40   41 1  
    33   42   43 am 
    34   43   45 1  
    35   43   44 2  
    36   46   48 ar 
    37   46   47 ar 
    38   47   49 ar 
    39   49   50 ar 
    40   50   52 1  
    41   51   50 ar 
    42   48   51 ar 
    43   52   54 2  
    44   52   53 2  
    45   28   27 1  
    46   30   28 ar 
    47   29   28 ar 
    48   31   29 ar 
    49   32   31 ar 
    50   34   32 1  
    51   32   33 ar 
    52   33   30 ar 
    53   35   34 am 
    54   35   37 1  
    55   35   36 2  
    56   27   55 1  
@<TRIPOS>SUBSTRUCTURE
     1 SUB1        1 GROUP

