1okl_ligand
  -I-interpret- 

 31 32  0  0  0  0  0  0  0  0999 V2000
   -4.3670    0.4611   14.4811 H   0  0  0  0  0
   -3.5311    2.0787   12.7922 H   0  0  0  0  0
   -5.2670    2.0110   15.7090 C   0  0  0  0  0
   -4.5510    1.5230   14.5980 C   0  0  0  0  0
   -4.0850    2.4330   13.6540 C   0  0  0  0  0
   -4.3270    3.8040   13.8100 C   0  0  0  0  0
   -5.0370    4.3650   14.8970 C   0  0  0  0  0
   -5.2940    5.7660   15.0740 C   0  0  0  0  0
   -6.0160    6.1860   16.2070 C   0  0  0  0  0
   -6.4910    5.2760   17.1660 C   0  0  0  0  0
   -6.2330    3.9050   16.9830 C   0  0  0  0  0
   -5.5130    3.4240   15.8650 C   0  0  0  0  0
   -4.7820    6.7640   14.0340 N   0  0  0  0  0
   -3.5760    6.8600   14.1100 C   0  0  0  0  0
   -5.4690    6.6220   12.9000 C   0  0  0  0  0
   -5.8600    0.9290   16.8970 S   0  0  0  0  0
   -7.3490    1.0470   16.9670 O   0  0  0  0  0
   -5.2510    1.2730   18.2200 O   0  0  0  0  0
   -5.4860   -0.4700   16.5240 N   0  0  0  0  0
   -3.9463    4.4769   13.0502 H   0  0  0  0  0
   -6.2114    7.2435   16.3436 H   0  0  0  0  0
   -7.0455    5.6233   18.0302 H   0  0  0  0  0
   -6.5963    3.1976   17.7197 H   0  0  0  0  0
   -3.2174    7.5792   13.3589 H   0  0  0  0  0
   -3.1175    5.8774   13.9249 H   0  0  0  0  0
   -3.2987    7.2106   15.1151 H   0  0  0  0  0
   -6.5434    6.5601   13.1275 H   0  0  0  0  0
   -5.1486    5.7015   12.3900 H   0  0  0  0  0
   -5.2818    7.4872   12.2470 H   0  0  0  0  0
   -5.7570   -1.2391   17.1165 H   0  0  0  0  0
   -4.9671   -0.6425   15.6868 H   0  0  0  0  0
  3 16  1  0  0  0
  3 12  4  0  0  0
  3  4  4  0  0  0
  4  5  4  0  0  0
  5  6  4  0  0  0
  6  7  4  0  0  0
  7 12  4  0  0  0
  7  8  4  0  0  0
  8 13  1  0  0  0
  8  9  4  0  0  0
  9 10  4  0  0  0
 10 11  4  0  0  0
 11 12  4  0  0  0
 13 15  1  0  0  0
 13 14  1  0  0  0
 16 19  1  0  0  0
 16 18  2  0  0  0
 16 17  2  0  0  0
  4  1  1  0  0  0
  5  2  1  0  0  0
  6 20  1  0  0  0
  9 21  1  0  0  0
 10 22  1  0  0  0
 11 23  1  0  0  0
 14 24  1  0  0  0
 14 25  1  0  0  0
 14 26  1  0  0  0
 15 27  1  0  0  0
 15 28  1  0  0  0
 15 29  1  0  0  0
 19 30  1  0  0  0
 19 31  1  0  0  0
M  END
$$$$
