### 
### Created by X-TOOL on Tue Oct 25 00:27:18 2005
### 

@<TRIPOS>MOLECULE
1okl_ligand
   31    32     1     0     0
SMALL
GAST_HUCK


@<TRIPOS>ATOM
      1 H41        -4.3670    0.4611   14.4811 H         1 SUB1        0.063
      2 H51        -3.5311    2.0787   12.7922 H         1 SUB1        0.059
      3 C1         -5.2670    2.0110   15.7090 C.ar      1 SUB1        0.110
      4 C2         -4.5510    1.5230   14.5980 C.ar      1 SUB1       -0.038
      5 C3         -4.0850    2.4330   13.6540 C.ar      1 SUB1       -0.062
      6 C4         -4.3270    3.8040   13.8100 C.ar      1 SUB1       -0.055
      7 C4A        -5.0370    4.3650   14.8970 C.ar      1 SUB1        0.006
      8 C5         -5.2940    5.7660   15.0740 C.ar      1 SUB1        0.042
      9 C6         -6.0160    6.1860   16.2070 C.ar      1 SUB1       -0.049
     10 C7         -6.4910    5.2760   17.1660 C.ar      1 SUB1       -0.079
     11 C8         -6.2330    3.9050   16.9830 C.ar      1 SUB1       -0.070
     12 C8A        -5.5130    3.4240   15.8650 C.ar      1 SUB1       -0.003
     13 N          -4.7820    6.7640   14.0340 N.3       1 SUB1       -0.253
     14 CM1        -3.5760    6.8600   14.1100 C.3       1 SUB1        0.009
     15 CM2        -5.4690    6.6220   12.9000 C.3       1 SUB1        0.009
     16 S          -5.8600    0.9290   16.8970 S.o2      1 SUB1        0.065
     17 O1S        -7.3490    1.0470   16.9670 O.2       1 SUB1       -0.151
     18 O2S        -5.2510    1.2730   18.2200 O.2       1 SUB1       -0.151
     19 N3S        -5.4860   -0.4700   16.5240 N.am      1 SUB1       -0.261
     20 H61        -3.9463    4.4769   13.0502 H         1 SUB1        0.063
     21 H91        -6.2114    7.2435   16.3436 H         1 SUB1        0.046
     22 H101       -7.0455    5.6233   18.0302 H         1 SUB1        0.057
     23 H111       -6.5963    3.1976   17.7197 H         1 SUB1        0.047
     24 H141       -3.2174    7.5792   13.3589 H         1 SUB1        0.045
     25 H142       -3.1175    5.8774   13.9249 H         1 SUB1        0.045
     26 H143       -3.2987    7.2106   15.1151 H         1 SUB1        0.045
     27 H151       -6.5434    6.5601   13.1275 H         1 SUB1        0.045
     28 H152       -5.1486    5.7015   12.3900 H         1 SUB1        0.045
     29 H153       -5.2818    7.4872   12.2470 H         1 SUB1        0.045
     30 H191       -5.7570   -1.2391   17.1165 H         1 SUB1        0.163
     31 H192       -4.9671   -0.6425   15.6868 H         1 SUB1        0.163
@<TRIPOS>BOND
     1    3   16 1  
     2    3   12 ar 
     3    3    4 ar 
     4    4    5 ar 
     5    5    6 ar 
     6    6    7 ar 
     7    7   12 ar 
     8    7    8 ar 
     9    8   13 1  
    10    8    9 ar 
    11    9   10 ar 
    12   10   11 ar 
    13   11   12 ar 
    14   13   15 1  
    15   13   14 1  
    16   16   19 1  
    17   16   18 2  
    18   16   17 2  
    19    4    1 1  
    20    5    2 1  
    21    6   20 1  
    22    9   21 1  
    23   10   22 1  
    24   11   23 1  
    25   14   24 1  
    26   14   25 1  
    27   14   26 1  
    28   15   27 1  
    29   15   28 1  
    30   15   29 1  
    31   19   30 1  
    32   19   31 1  
@<TRIPOS>SUBSTRUCTURE
     1 SUB1        1 GROUP

