### 
### Created by X-TOOL on Mon Oct 24 23:03:51 2005
### 

@<TRIPOS>MOLECULE
2gss_ligand
   30    30     1     0     0
SMALL
GAST_HUCK


@<TRIPOS>ATOM
      1 C1          7.9400    3.6820   25.9280 C.ar      1 SUB1        0.116
      2 O2          8.9290    4.1010   25.0970 O.3       1 SUB1       -0.298
      3 C2          8.2770    2.6700   26.8480 C.ar      1 SUB1        0.088
      4 CL1         9.9000    2.0990   26.8510 Cl        1 SUB1       -0.077
      5 C3          7.3580    2.1900   27.7220 C.ar      1 SUB1        0.065
      6 CL2         7.8080    0.9230   28.8280 Cl        1 SUB1       -0.067
      7 C4          6.0400    2.6530   27.7270 C.ar      1 SUB1        0.038
      8 C5          5.7110    3.6480   26.8010 C.ar      1 SUB1       -0.051
      9 C6          6.6340    4.1410   25.9200 C.ar      1 SUB1       -0.025
     10 C7          5.0500    2.2350   28.7710 C.2       1 SUB1        0.153
     11 O1          4.5330    1.1470   28.7190 O.2       1 SUB1       -0.372
     12 C8          4.7170    3.1410   29.9000 C.2       1 SUB1        0.006
     13 C9          4.9690    2.6060   31.2620 C.3       1 SUB1       -0.015
     14 C10         5.6550    3.4510   32.2280 C.3       1 SUB1       -0.055
     15 C11         4.1860    4.3020   29.6430 C.2       1 SUB1       -0.091
     16 C12         8.6800    5.2280   24.2860 C.3       1 SUB1        0.112
     17 C13         9.9070    5.5890   23.5350 C.2       1 SUB1        0.059
     18 O           9.8520    6.6840   22.9080 O.co2     1 SUB1       -0.564
     19 OXT        10.9340    4.8540   23.5630 O.co2     1 SUB1       -0.564
     20 H81         4.6998    4.0381   26.7809 H         1 SUB1        0.064
     21 H91         6.3388    4.9013   25.2060 H         1 SUB1        0.056
     22 H131        3.9940    2.3532   31.7039 H         1 SUB1        0.043
     23 H132        5.5784    1.6968   31.1530 H         1 SUB1        0.043
     24 H141        5.7570    2.9017   33.1756 H         1 SUB1        0.025
     25 H142        6.6567    3.7104   31.8548 H         1 SUB1        0.025
     26 H143        5.0723    4.3668   32.4058 H         1 SUB1        0.025
     27 H151        4.0367    4.6160   28.6110 H         1 SUB1        0.046
     28 H152        3.8912    4.9588   30.4601 H         1 SUB1        0.046
     29 H161        7.8794    4.9988   23.5674 H         1 SUB1        0.084
     30 H162        8.3861    6.0808   24.9155 H         1 SUB1        0.084
@<TRIPOS>BOND
     1    1    2 1  
     2    1    3 ar 
     3    1    9 ar 
     4    2   16 1  
     5    3    4 1  
     6    3    5 ar 
     7    5    6 1  
     8    5    7 ar 
     9    7    8 ar 
    10    7   10 1  
    11    8    9 ar 
    12   10   11 2  
    13   10   12 1  
    14   12   13 1  
    15   12   15 2  
    16   13   14 1  
    17   16   17 1  
    18   17   18 2  
    19   17   19 2  
    20    8   20 1  
    21    9   21 1  
    22   13   22 1  
    23   13   23 1  
    24   14   24 1  
    25   14   25 1  
    26   14   26 1  
    27   15   27 1  
    28   15   28 1  
    29   16   29 1  
    30   16   30 1  
@<TRIPOS>SUBSTRUCTURE
     1 SUB1        1 GROUP

