2gss_ligand
  -I-interpret- 

 30 30  0  0  0  0  0  0  0  0999 V2000
    7.9400    3.6820   25.9280 C   0  0  0  0  0
    8.9290    4.1010   25.0970 O   0  0  0  0  0
    8.2770    2.6700   26.8480 C   0  0  0  0  0
    9.9000    2.0990   26.8510 Cl  0  0  0  0  0
    7.3580    2.1900   27.7220 C   0  0  0  0  0
    7.8080    0.9230   28.8280 Cl  0  0  0  0  0
    6.0400    2.6530   27.7270 C   0  0  0  0  0
    5.7110    3.6480   26.8010 C   0  0  0  0  0
    6.6340    4.1410   25.9200 C   0  0  0  0  0
    5.0500    2.2350   28.7710 C   0  0  0  0  0
    4.5330    1.1470   28.7190 O   0  0  0  0  0
    4.7170    3.1410   29.9000 C   0  0  0  0  0
    4.9690    2.6060   31.2620 C   0  0  0  0  0
    5.6550    3.4510   32.2280 C   0  0  0  0  0
    4.1860    4.3020   29.6430 C   0  0  0  0  0
    8.6800    5.2280   24.2860 C   0  0  0  0  0
    9.9070    5.5890   23.5350 C   0  0  0  0  0
    9.8520    6.6840   22.9080 O   0  0  0  0  0
   10.9340    4.8540   23.5630 O   0  5  0  0  0
    4.6998    4.0381   26.7809 H   0  0  0  0  0
    6.3388    4.9013   25.2060 H   0  0  0  0  0
    3.9940    2.3532   31.7039 H   0  0  0  0  0
    5.5784    1.6968   31.1530 H   0  0  0  0  0
    5.7570    2.9017   33.1756 H   0  0  0  0  0
    6.6567    3.7104   31.8548 H   0  0  0  0  0
    5.0723    4.3668   32.4058 H   0  0  0  0  0
    4.0367    4.6160   28.6110 H   0  0  0  0  0
    3.8912    4.9588   30.4601 H   0  0  0  0  0
    7.8794    4.9988   23.5674 H   0  0  0  0  0
    8.3861    6.0808   24.9155 H   0  0  0  0  0
  1  2  1  0  0  0
  1  3  4  0  0  0
  1  9  4  0  0  0
  2 16  1  0  0  0
  3  4  1  0  0  0
  3  5  4  0  0  0
  5  6  1  0  0  0
  5  7  4  0  0  0
  7  8  4  0  0  0
  7 10  1  0  0  0
  8  9  4  0  0  0
 10 11  2  0  0  0
 10 12  1  0  0  0
 12 13  1  0  0  0
 12 15  2  0  0  0
 13 14  1  0  0  0
 16 17  1  0  0  0
 17 18  2  0  0  0
 17 19  1  0  0  0
  8 20  1  0  0  0
  9 21  1  0  0  0
 13 22  1  0  0  0
 13 23  1  0  0  0
 14 24  1  0  0  0
 14 25  1  0  0  0
 14 26  1  0  0  0
 15 27  1  0  0  0
 15 28  1  0  0  0
 16 29  1  0  0  0
 16 30  1  0  0  0
M  END
$$$$
