1ulg_ligand
  -I-interpret- 

 51 52  0  0  0  0  0  0  0  0999 V2000
  -33.8070  -20.4010  -17.0060 C   0  0  0  0  0
  -33.1600  -21.2000  -15.8670 C   0  0  0  0  0
  -34.1960  -21.4830  -14.7750 C   0  0  0  0  0
  -34.8490  -20.1780  -14.3190 C   0  0  0  0  0
  -35.4340  -19.4450  -15.5270 C   0  0  0  0  0
  -36.0340  -18.1030  -15.1540 C   0  0  0  0  0
  -32.6480  -22.4250  -16.3730 O   0  0  0  0  0
  -33.5710  -22.1150  -13.6690 O   0  0  0  0  0
  -33.8770  -19.3570  -13.6880 O   0  0  0  0  0
  -34.3980  -19.1940  -16.5020 O   0  0  0  0  0
  -36.3090  -17.3230  -16.3080 O   0  0  0  0  0
  -32.4550  -19.7700  -21.6780 C   0  0  0  0  0
  -32.0000  -20.0460  -20.2320 C   0  0  0  0  0
  -33.2190  -20.2470  -19.3260 C   0  0  0  0  0
  -34.3220  -19.2670  -19.7220 C   0  0  0  0  0
  -34.8070  -19.5970  -21.1440 C   0  0  0  0  0
  -36.0360  -20.4950  -21.1390 C   0  0  0  0  0
  -29.9340  -21.2560  -20.6860 C   0  0  0  0  0
  -29.3630  -19.9860  -21.3140 C   0  0  0  0  0
  -31.1740  -21.2430  -20.1920 N   0  0  0  0  0
  -32.4840  -18.4030  -21.9070 O   0  0  0  0  0
  -32.8480  -20.0500  -17.9450 O   0  0  0  0  0
  -33.8080  -17.9430  -19.6950 O   0  0  0  0  0
  -33.7770  -20.2920  -21.9010 O   0  0  0  0  0
  -36.7300  -20.4280  -19.8990 O   0  0  0  0  0
  -29.2350  -22.2670  -20.6510 O   0  0  0  0  0
  -34.5824  -21.0181  -17.4834 H   0  0  0  0  0
  -32.3346  -20.6131  -15.4377 H   0  0  0  0  0
  -34.9710  -22.1502  -15.1803 H   0  0  0  0  0
  -35.6547  -20.4037  -13.6049 H   0  0  0  0  0
  -36.2157  -20.0765  -15.9744 H   0  0  0  0  0
  -35.3242  -17.5584  -14.5141 H   0  0  0  0  0
  -36.9711  -18.2701  -14.6027 H   0  0  0  0  0
  -32.0063  -22.2433  -17.0496 H   0  0  0  0  0
  -32.9072  -21.5382  -13.3097 H   0  0  0  0  0
  -33.5157  -19.8151  -12.9383 H   0  0  0  0  0
  -35.5022  -17.1718  -16.7863 H   0  0  0  0  0
  -31.7504  -20.2467  -22.3754 H   0  0  0  0  0
  -31.4150  -19.1883  -19.8686 H   0  0  0  0  0
  -33.5921  -21.2742  -19.4510 H   0  0  0  0  0
  -35.1617  -19.3512  -19.0165 H   0  0  0  0  0
  -35.0547  -18.6526  -21.6507 H   0  0  0  0  0
  -35.7196  -21.5337  -21.3150 H   0  0  0  0  0
  -36.7138  -20.1766  -21.9447 H   0  0  0  0  0
  -28.3385  -20.1791  -21.6649 H   0  0  0  0  0
  -29.3482  -19.1810  -20.5645 H   0  0  0  0  0
  -29.9910  -19.6833  -22.1649 H   0  0  0  0  0
  -31.5447  -22.0773  -19.7840 H   0  0  0  0  0
  -33.1010  -17.9961  -21.3101 H   0  0  0  0  0
  -33.0812  -17.8742  -20.3029 H   0  0  0  0  0
  -37.4888  -20.9987  -19.9308 H   0  0  0  0  0
  1  2  1  0  0  0
  1 10  1  0  0  0
 22  1  1  0  0  0
  2  3  1  0  0  0
  2  7  1  0  0  0
  3  4  1  0  0  0
  3  8  1  0  0  0
  5  4  1  0  0  0
  4  9  1  0  0  0
  5  6  1  0  0  0
 10  5  1  0  0  0
  6 11  1  0  0  0
 13 12  1  0  0  0
 12 21  1  0  0  0
 12 24  1  0  0  0
 13 14  1  0  0  0
 20 13  1  0  0  0
 14 15  1  0  0  0
 14 22  1  0  0  0
 15 16  1  0  0  0
 15 23  1  0  0  0
 16 17  1  0  0  0
 24 16  1  0  0  0
 17 25  1  0  0  0
 18 19  1  0  0  0
 18 20  1  0  0  0
 18 26  2  0  0  0
  1 27  1  0  0  0
  2 28  1  0  0  0
  3 29  1  0  0  0
  4 30  1  0  0  0
  5 31  1  0  0  0
  6 32  1  0  0  0
  6 33  1  0  0  0
  7 34  1  0  0  0
  8 35  1  0  0  0
  9 36  1  0  0  0
 11 37  1  0  0  0
 12 38  1  0  0  0
 13 39  1  0  0  0
 14 40  1  0  0  0
 15 41  1  0  0  0
 16 42  1  0  0  0
 17 43  1  0  0  0
 17 44  1  0  0  0
 19 45  1  0  0  0
 19 46  1  0  0  0
 19 47  1  0  0  0
 20 48  1  0  0  0
 21 49  1  0  0  0
 23 50  1  0  0  0
 25 51  1  0  0  0
M  END
$$$$
