1nl9_ligand
  -I-interpret- 

 68 70  0  0  0  0  0  0  0  0999 V2000
   36.6580   29.5000   24.0190 O   0  5  0  0  0
   35.6080   28.7400   24.4130 C   0  0  0  0  0
   34.7470   29.1720   25.1210 O   0  0  0  0  0
   35.5430   27.2770   23.8800 C   0  0  0  0  0
   35.8780   26.4060   24.6770 O   0  0  0  0  0
   35.1250   26.9770   22.5520 N   0  0  0  0  0
   35.0770   25.6090   22.0500 C   0  0  0  0  0
   33.8320   25.1790   21.4580 C   0  0  0  0  0
   33.6470   23.8880   20.9270 C   0  0  0  0  0
   34.6920   22.9580   20.9560 C   0  0  0  0  0
   35.9260   23.3190   21.5200 C   0  0  0  0  0
   36.1640   24.6160   22.0720 C   0  0  0  0  0
   37.5320   24.8230   22.6270 C   0  0  0  0  0
   38.1510   25.8280   22.4800 O   0  0  0  0  0
   38.0450   23.7900   23.3310 O   0  5  0  0  0
   34.6920   28.0320   21.7050 C   0  0  0  0  0
   33.3820   28.5810   21.9580 C   0  0  0  0  0
   32.8500   29.6210   21.1820 C   0  0  0  0  0
   33.5800   30.1890   20.0990 C   0  0  0  0  0
   34.9180   29.6720   19.7980 C   0  0  0  0  0
   35.4720   28.5890   20.6090 C   0  0  0  0  0
   36.7870   28.0840   20.3050 C   0  0  0  0  0
   37.5460   28.6280   19.2330 C   0  0  0  0  0
   37.0150   29.6830   18.4400 C   0  0  0  0  0
   35.7220   30.1980   18.7140 C   0  0  0  0  0
   32.9120   31.3080   19.3060 C   0  0  0  0  0
   32.3120   30.7900   17.9580 C   0  0  0  0  0
   31.7070   31.9260   17.2520 N   0  0  0  0  0
   32.2190   32.3740   16.0860 C   0  0  0  0  0
   33.1960   31.9010   15.5140 O   0  0  0  0  0
   31.4680   33.5610   15.5050 C   0  0  0  0  0
   31.2950   29.6300   18.1280 C   0  0  0  0  0
   31.7310   28.4810   18.1910 O   0  0  0  0  0
   29.9660   29.9050   18.2080 N   0  0  0  0  0
   28.8920   28.9250   18.3750 C   0  0  0  0  0
   27.6830   29.5000   19.1330 C   0  0  0  0  0
   27.9330   29.6020   20.6510 C   0  0  0  0  0
   26.7150   30.1700   21.4020 C   0  0  0  0  0
   27.0890   30.8300   22.7320 C   0  0  0  0  0
   33.0054   25.8793   21.4208 H   0  0  0  0  0
   32.6917   23.6137   20.4943 H   0  0  0  0  0
   34.5497   21.9649   20.5455 H   0  0  0  0  0
   36.7266   22.5884   21.5375 H   0  0  0  0  0
   32.7912   28.1775   22.7724 H   0  0  0  0  0
   31.8611   30.0010   21.4116 H   0  0  0  0  0
   37.2025   27.2795   20.9010 H   0  0  0  0  0
   38.5341   28.2370   19.0188 H   0  0  0  0  0
   37.5995   30.0941   17.6249 H   0  0  0  0  0
   35.3282   31.0003   18.1006 H   0  0  0  0  0
   32.0953   31.7381   19.9043 H   0  0  0  0  0
   33.6573   32.0837   19.0762 H   0  0  0  0  0
   33.1363   30.3944   17.3465 H   0  0  0  0  0
   30.9027   32.3752   17.6410 H   0  0  0  0  0
   31.9474   33.8611   14.5615 H   0  0  0  0  0
   30.4235   33.2816   15.3029 H   0  0  0  0  0
   31.5008   34.4063   16.2081 H   0  0  0  0  0
   29.6973   30.8663   18.1471 H   0  0  0  0  0
   28.5488   28.5954   17.3833 H   0  0  0  0  0
   29.2752   28.0652   18.9441 H   0  0  0  0  0
   27.4675   30.5095   18.7531 H   0  0  0  0  0
   26.8137   28.8454   18.9726 H   0  0  0  0  0
   28.1462   28.5994   21.0501 H   0  0  0  0  0
   28.7897   30.2677   20.8320 H   0  0  0  0  0
   26.2278   30.9281   20.7713 H   0  0  0  0  0
   26.0122   29.3509   21.6145 H   0  0  0  0  0
   26.1756   31.2114   23.2119 H   0  0  0  0  0
   27.5616   30.0923   23.3970 H   0  0  0  0  0
   27.7772   31.6694   22.5538 H   0  0  0  0  0
  1  2  1  0  0  0
  2  3  2  0  0  0
  2  4  1  0  0  0
  4  5  2  0  0  0
  4  6  1  0  0  0
  6  7  1  0  0  0
  6 16  1  0  0  0
  7  8  4  0  0  0
  7 12  4  0  0  0
  8  9  4  0  0  0
  9 10  4  0  0  0
 10 11  4  0  0  0
 11 12  4  0  0  0
 12 13  1  0  0  0
 13 14  2  0  0  0
 13 15  1  0  0  0
 16 17  4  0  0  0
 16 21  4  0  0  0
 17 18  4  0  0  0
 18 19  4  0  0  0
 19 20  4  0  0  0
 19 26  1  0  0  0
 20 21  4  0  0  0
 20 25  4  0  0  0
 21 22  4  0  0  0
 22 23  4  0  0  0
 23 24  4  0  0  0
 24 25  4  0  0  0
 26 27  1  0  0  0
 27 28  1  0  0  0
 27 32  1  0  0  0
 28 29  1  0  0  0
 29 30  2  0  0  0
 29 31  1  0  0  0
 32 33  2  0  0  0
 32 34  1  0  0  0
 34 35  1  0  0  0
 35 36  1  0  0  0
 36 37  1  0  0  0
 37 38  1  0  0  0
 38 39  1  0  0  0
  8 40  1  0  0  0
  9 41  1  0  0  0
 10 42  1  0  0  0
 11 43  1  0  0  0
 17 44  1  0  0  0
 18 45  1  0  0  0
 22 46  1  0  0  0
 23 47  1  0  0  0
 24 48  1  0  0  0
 25 49  1  0  0  0
 26 50  1  0  0  0
 26 51  1  0  0  0
 27 52  1  0  0  0
 28 53  1  0  0  0
 31 54  1  0  0  0
 31 55  1  0  0  0
 31 56  1  0  0  0
 34 57  1  0  0  0
 35 58  1  0  0  0
 35 59  1  0  0  0
 36 60  1  0  0  0
 36 61  1  0  0  0
 37 62  1  0  0  0
 37 63  1  0  0  0
 38 64  1  0  0  0
 38 65  1  0  0  0
 39 66  1  0  0  0
 39 67  1  0  0  0
 39 68  1  0  0  0
M  END
$$$$
