### 
### Created by X-TOOL on Tue Oct 25 02:21:47 2005
### 

@<TRIPOS>MOLECULE
1nl9_ligand
   68    70     1     0     0
SMALL
GAST_HUCK


@<TRIPOS>ATOM
      1 O22        36.6580   29.5000   24.0190 O.co2     1 SUB1       -0.690
      2 C21        35.6080   28.7400   24.4130 C.2       1 SUB1       -0.082
      3 O23        34.7470   29.1720   25.1210 O.co2     1 SUB1       -0.690
      4 C18        35.5430   27.2770   23.8800 C.2       1 SUB1        0.121
      5 O20        35.8780   26.4060   24.6770 O.2       1 SUB1       -0.479
      6 N17        35.1250   26.9770   22.5520 N.am      1 SUB1       -0.166
      7 C19        35.0770   25.6090   22.0500 C.ar      1 SUB1        0.172
      8 C28        33.8320   25.1790   21.4580 C.ar      1 SUB1        0.012
      9 C27        33.6470   23.8880   20.9270 C.ar      1 SUB1       -0.037
     10 C26        34.6920   22.9580   20.9560 C.ar      1 SUB1       -0.036
     11 C25        35.9260   23.3190   21.5200 C.ar      1 SUB1       -0.010
     12 C24        36.1640   24.6160   22.0720 C.ar      1 SUB1        0.140
     13 C33        37.5320   24.8230   22.6270 C.2       1 SUB1        0.195
     14 O34        38.1510   25.8280   22.4800 O.co2     1 SUB1       -0.465
     15 O35        38.0450   23.7900   23.3310 O.co2     1 SUB1       -0.465
     16 C10        34.6920   28.0320   21.7050 C.ar      1 SUB1        0.121
     17 C9         33.3820   28.5810   21.9580 C.ar      1 SUB1       -0.032
     18 C8         32.8500   29.6210   21.1820 C.ar      1 SUB1       -0.066
     19 C7         33.5800   30.1890   20.0990 C.ar      1 SUB1       -0.036
     20 C3         34.9180   29.6720   19.7980 C.ar      1 SUB1       -0.014
     21 C4         35.4720   28.5890   20.6090 C.ar      1 SUB1        0.020
     22 C5         36.7870   28.0840   20.3050 C.ar      1 SUB1       -0.054
     23 C6         37.5460   28.6280   19.2330 C.ar      1 SUB1       -0.064
     24 C1         37.0150   29.6830   18.4400 C.ar      1 SUB1       -0.064
     25 C2         35.7220   30.1980   18.7140 C.ar      1 SUB1       -0.057
     26 C36        32.9120   31.3080   19.3060 C.3       1 SUB1        0.020
     27 C37        32.3120   30.7900   17.9580 C.3       1 SUB1        0.140
     28 N41        31.7070   31.9260   17.2520 N.am      1 SUB1       -0.264
     29 C61        32.2190   32.3740   16.0860 C.2       1 SUB1        0.175
     30 O66        33.1960   31.9010   15.5140 O.2       1 SUB1       -0.397
     31 C62        31.4680   33.5610   15.5050 C.3       1 SUB1        0.026
     32 C40        31.2950   29.6300   18.1280 C.2       1 SUB1        0.204
     33 O43        31.7310   28.4810   18.1910 O.2       1 SUB1       -0.394
     34 N44        29.9660   29.9050   18.2080 N.am      1 SUB1       -0.285
     35 C45        28.8920   28.9250   18.3750 C.3       1 SUB1        0.031
     36 C46        27.6830   29.5000   19.1330 C.3       1 SUB1       -0.033
     37 C49        27.9330   29.6020   20.6510 C.3       1 SUB1       -0.052
     38 C52        26.7150   30.1700   21.4020 C.3       1 SUB1       -0.056
     39 C55        27.0890   30.8300   22.7320 C.3       1 SUB1       -0.065
     40 H81        33.0054   25.8793   21.4208 H         1 SUB1        0.065
     41 H91        32.6917   23.6137   20.4943 H         1 SUB1        0.085
     42 H101       34.5497   21.9649   20.5455 H         1 SUB1        0.065
     43 H111       36.7266   22.5884   21.5375 H         1 SUB1        0.085
     44 H171       32.7912   28.1775   22.7724 H         1 SUB1        0.054
     45 H181       31.8611   30.0010   21.4116 H         1 SUB1        0.052
     46 H221       37.2025   27.2795   20.9010 H         1 SUB1        0.062
     47 H231       38.5341   28.2370   19.0188 H         1 SUB1        0.060
     48 H241       37.5995   30.0941   17.6249 H         1 SUB1        0.060
     49 H251       35.3282   31.0003   18.1006 H         1 SUB1        0.062
     50 H261       32.0953   31.7381   19.9043 H         1 SUB1        0.047
     51 H262       33.6573   32.0837   19.0762 H         1 SUB1        0.047
     52 H271       33.1363   30.3944   17.3465 H         1 SUB1        0.082
     53 H281       30.9027   32.3752   17.6410 H         1 SUB1        0.188
     54 H311       31.9474   33.8611   14.5615 H         1 SUB1        0.047
     55 H312       30.4235   33.2816   15.3029 H         1 SUB1        0.047
     56 H313       31.5008   34.4063   16.2081 H         1 SUB1        0.047
     57 H341       29.6973   30.8663   18.1471 H         1 SUB1        0.185
     58 H351       28.5488   28.5954   17.3833 H         1 SUB1        0.052
     59 H352       29.2752   28.0652   18.9441 H         1 SUB1        0.052
     60 H361       27.4675   30.5095   18.7531 H         1 SUB1        0.029
     61 H362       26.8137   28.8454   18.9726 H         1 SUB1        0.029
     62 H371       28.1462   28.5994   21.0501 H         1 SUB1        0.027
     63 H372       28.7897   30.2677   20.8320 H         1 SUB1        0.027
     64 H381       26.2278   30.9281   20.7713 H         1 SUB1        0.026
     65 H382       26.0122   29.3509   21.6145 H         1 SUB1        0.026
     66 H391       26.1756   31.2114   23.2119 H         1 SUB1        0.023
     67 H392       27.5616   30.0923   23.3970 H         1 SUB1        0.023
     68 H393       27.7772   31.6694   22.5538 H         1 SUB1        0.023
@<TRIPOS>BOND
     1    1    2 2  
     2    2    3 2  
     3    2    4 1  
     4    4    5 2  
     5    4    6 am 
     6    6    7 1  
     7    6   16 1  
     8    7    8 ar 
     9    7   12 ar 
    10    8    9 ar 
    11    9   10 ar 
    12   10   11 ar 
    13   11   12 ar 
    14   12   13 1  
    15   13   14 2  
    16   13   15 2  
    17   16   17 ar 
    18   16   21 ar 
    19   17   18 ar 
    20   18   19 ar 
    21   19   20 ar 
    22   19   26 1  
    23   20   21 ar 
    24   20   25 ar 
    25   21   22 ar 
    26   22   23 ar 
    27   23   24 ar 
    28   24   25 ar 
    29   26   27 1  
    30   27   28 1  
    31   27   32 1  
    32   28   29 am 
    33   29   30 2  
    34   29   31 1  
    35   32   33 2  
    36   32   34 am 
    37   34   35 1  
    38   35   36 1  
    39   36   37 1  
    40   37   38 1  
    41   38   39 1  
    42    8   40 1  
    43    9   41 1  
    44   10   42 1  
    45   11   43 1  
    46   17   44 1  
    47   18   45 1  
    48   22   46 1  
    49   23   47 1  
    50   24   48 1  
    51   25   49 1  
    52   26   50 1  
    53   26   51 1  
    54   27   52 1  
    55   28   53 1  
    56   31   54 1  
    57   31   55 1  
    58   31   56 1  
    59   34   57 1  
    60   35   58 1  
    61   35   59 1  
    62   36   60 1  
    63   36   61 1  
    64   37   62 1  
    65   37   63 1  
    66   38   64 1  
    67   38   65 1  
    68   39   66 1  
    69   39   67 1  
    70   39   68 1  
@<TRIPOS>SUBSTRUCTURE
     1 SUB1        1 GROUP

