### 
### Created by X-TOOL on Mon Oct 24 22:06:00 2005
### 

@<TRIPOS>MOLECULE
1p1o_ligand
   20    20     1     0     0
SMALL
GAST_HUCK


@<TRIPOS>ATOM
      1 C01        14.8140    1.2690   18.5500 C.2       1 SUB1        0.078
      2 C02        14.6700    1.5780   17.0550 C.3       1 SUB1        0.039
      3 C03        16.0570    2.0870   16.6370 C.3       1 SUB1        0.122
      4 C04        16.5890    0.3950   14.8250 C.2       1 SUB1        0.320
      5 C05        15.8780    1.6490   13.0980 C.2       1 SUB1        0.377
      6 NP3        13.5190    2.5360   16.9410 N.4       1 SUB1        0.240
      7 N14        16.3790    1.6670   15.2710 N.am      1 SUB1       -0.090
      8 N15        16.2850    0.4170   13.5050 N.am      1 SUB1       -0.157
      9 O16        13.9960    1.7570   19.3480 O.co2     1 SUB1       -0.561
     10 O17        15.7640    0.5270   18.8920 O.co2     1 SUB1       -0.561
     11 O18        16.9670   -0.5020   15.5150 O.2       1 SUB1       -0.394
     12 O19        15.5250    2.0420   12.0010 O.2       1 SUB1       -0.370
     13 O20        15.9150    2.4860   14.1900 O.3       1 SUB1       -0.114
     14 H21        14.4203    0.6777   16.4744 H         1 SUB1        0.109
     15 H31        16.0714    3.1861   16.6770 H         1 SUB1        0.065
     16 H32        16.8181    1.6770   17.3171 H         1 SUB1        0.065
     17 H61        12.6764    2.0744   17.2458 H         1 SUB1        0.202
     18 H62        13.6823    3.3406   17.5257 H         1 SUB1        0.202
     19 H63        13.4062    2.8252   15.9820 H         1 SUB1        0.202
     20 H81        16.3519   -0.3779   12.9019 H         1 SUB1        0.228
@<TRIPOS>BOND
     1    2    1 1  
     2    1    9 2  
     3    1   10 2  
     4    3    2 1  
     5    2    6 1  
     6    7    3 1  
     7   13    7 1  
     8    5   13 1  
     9    5   12 2  
    10    4   11 2  
    11    8    5 am 
    12    8    4 am 
    13    7    4 am 
    14    2   14 1  
    15    3   15 1  
    16    3   16 1  
    17    6   17 1  
    18    6   18 1  
    19    6   19 1  
    20    8   20 1  
@<TRIPOS>SUBSTRUCTURE
     1 SUB1        1 GROUP

