### 
### Created by X-TOOL on Tue Oct 25 02:22:48 2005
### 

@<TRIPOS>MOLECULE
1vyq_ligand
   60    64     1     0     0
SMALL
GAST_HUCK


@<TRIPOS>ATOM
      1 F3'        37.8290   -8.9620  -12.6150 F         1 SUB1       -0.243
      2 C3'        37.3800   -9.6380  -11.5560 C.3       1 SUB1        0.134
      3 C2'        36.2180  -10.5470  -11.9640 C.3       1 SUB1        0.037
      4 C1'        36.5220  -11.8020  -11.1630 C.3       1 SUB1        0.180
      5 N1         35.9400  -11.8400   -9.8170 N.am      1 SUB1       -0.162
      6 C2         35.8490  -13.1040   -9.1740 C.2       1 SUB1        0.333
      7 N3         35.3030  -13.1860   -7.9360 N.am      1 SUB1       -0.186
      8 C4         34.8650  -12.0830   -7.2780 C.2       1 SUB1        0.182
      9 C5         34.9510  -10.8210   -7.8630 C.2       1 SUB1        0.006
     10 C6         35.4940  -10.7320   -9.1490 C.2       1 SUB1        0.059
     11 O4         34.4020  -12.1570   -6.1310 O.2       1 SUB1       -0.412
     12 O2         36.2720  -14.1170   -9.7800 O.2       1 SUB1       -0.382
     13 O4'        37.9440  -11.8280  -10.9840 O.3       1 SUB1       -0.339
     14 C4'        38.5220  -10.5050  -11.0940 C.3       1 SUB1        0.115
     15 C5'        39.1520   -9.9530   -9.8220 C.3       1 SUB1        0.058
     16 O5'        40.5210  -10.4390   -9.6660 O.3       1 SUB1       -0.434
     17 C17        41.1400  -10.5420   -8.3480 C.3       1 SUB1        0.069
     18 C30        41.7220   -9.1670   -8.0130 C.ar      1 SUB1       -0.057
     19 C31        41.5580   -8.0490   -8.8700 C.ar      1 SUB1       -0.054
     20 C32        42.1120   -6.8100   -8.5390 C.ar      1 SUB1       -0.043
     21 C33        42.8720   -6.6580   -7.3740 C.ar      1 SUB1       -0.044
     22 C34        43.0660   -7.7530   -6.5360 C.ar      1 SUB1       -0.043
     23 C35        42.4930   -8.9990   -6.8430 C.ar      1 SUB1       -0.054
     24 C24        40.0380  -11.0310   -7.4310 C.ar      1 SUB1       -0.057
     25 C25        39.5480  -10.2750   -6.3650 C.ar      1 SUB1       -0.054
     26 C26        38.5090  -10.7520   -5.5640 C.ar      1 SUB1       -0.043
     27 C27        37.9090  -11.9710   -5.8420 C.ar      1 SUB1       -0.044
     28 C28        38.3690  -12.7440   -6.9040 C.ar      1 SUB1       -0.043
     29 C29        39.4220  -12.2750   -7.7040 C.ar      1 SUB1       -0.054
     30 C18        42.2870  -11.5390   -8.4740 C.ar      1 SUB1       -0.057
     31 C19        43.1010  -11.5630   -9.6240 C.ar      1 SUB1       -0.054
     32 C20        44.1740  -12.4790   -9.7290 C.ar      1 SUB1       -0.043
     33 C21        44.4400  -13.4070   -8.7110 C.ar      1 SUB1       -0.044
     34 C22        43.6470  -13.3850   -7.5640 C.ar      1 SUB1       -0.043
     35 C23        42.5930  -12.4660   -7.4560 C.ar      1 SUB1       -0.054
     36 H21        37.0620   -8.9475  -10.7610 H         1 SUB1        0.068
     37 H31        36.2255  -10.7485  -13.0454 H         1 SUB1        0.035
     38 H32        35.2484  -10.1129  -11.6786 H         1 SUB1        0.035
     39 H41        36.1804  -12.6817  -11.7283 H         1 SUB1        0.097
     40 H71        35.2210  -14.0808   -7.4971 H         1 SUB1        0.226
     41 H91        34.6065   -9.9326   -7.3358 H         1 SUB1        0.026
     42 H101       35.5635   -9.7576   -9.6302 H         1 SUB1        0.118
     43 H141       39.3054  -10.5259  -11.8659 H         1 SUB1        0.065
     44 H151       38.5549  -10.2737   -8.9556 H         1 SUB1        0.057
     45 H152       39.1634   -8.8543   -9.8730 H         1 SUB1        0.057
     46 H191       40.9971   -8.1570   -9.7913 H         1 SUB1        0.076
     47 H201       41.9517   -5.9586   -9.1906 H         1 SUB1        0.067
     48 H211       43.3060   -5.6961   -7.1260 H         1 SUB1        0.077
     49 H221       43.6644   -7.6434   -5.6388 H         1 SUB1        0.067
     50 H231       42.6447   -9.8390   -6.1748 H         1 SUB1        0.076
     51 H251       39.9806   -9.3033   -6.1560 H         1 SUB1        0.076
     52 H261       38.1687  -10.1652   -4.7185 H         1 SUB1        0.067
     53 H271       37.0832  -12.3211   -5.2332 H         1 SUB1        0.077
     54 H281       37.9149  -13.7060   -7.1126 H         1 SUB1        0.067
     55 H291       39.7672  -12.8722   -8.5402 H         1 SUB1        0.076
     56 H311       42.9031  -10.8728  -10.4361 H         1 SUB1        0.076
     57 H321       44.8022  -12.4636  -10.6123 H         1 SUB1        0.067
     58 H331       45.2448  -14.1259   -8.8138 H         1 SUB1        0.077
     59 H341       43.8454  -14.0789   -6.7551 H         1 SUB1        0.067
     60 H351       41.9901  -12.4683   -6.5551 H         1 SUB1        0.076
@<TRIPOS>BOND
     1    1    2 1  
     2    2    3 1  
     3    2   14 1  
     4    3    4 1  
     5    4    5 1  
     6    4   13 1  
     7    5    6 am 
     8    5   10 1  
     9    6    7 am 
    10    6   12 2  
    11    7    8 am 
    12    8    9 1  
    13    8   11 2  
    14    9   10 2  
    15   13   14 1  
    16   14   15 1  
    17   15   16 1  
    18   16   17 1  
    19   17   18 1  
    20   17   24 1  
    21   17   30 1  
    22   18   19 ar 
    23   18   23 ar 
    24   19   20 ar 
    25   20   21 ar 
    26   21   22 ar 
    27   22   23 ar 
    28   24   25 ar 
    29   24   29 ar 
    30   25   26 ar 
    31   26   27 ar 
    32   27   28 ar 
    33   28   29 ar 
    34   30   31 ar 
    35   30   35 ar 
    36   31   32 ar 
    37   32   33 ar 
    38   33   34 ar 
    39   34   35 ar 
    40    2   36 1  
    41    3   37 1  
    42    3   38 1  
    43    4   39 1  
    44    7   40 1  
    45    9   41 1  
    46   10   42 1  
    47   14   43 1  
    48   15   44 1  
    49   15   45 1  
    50   19   46 1  
    51   20   47 1  
    52   21   48 1  
    53   22   49 1  
    54   23   50 1  
    55   25   51 1  
    56   26   52 1  
    57   27   53 1  
    58   28   54 1  
    59   29   55 1  
    60   31   56 1  
    61   32   57 1  
    62   33   58 1  
    63   34   59 1  
    64   35   60 1  
@<TRIPOS>SUBSTRUCTURE
     1 SUB1        1 GROUP

