### 
### Created by X-TOOL on Mon Oct 24 22:47:16 2005
### 

@<TRIPOS>MOLECULE
1nvs_ligand
   45    52     1     0     0
SMALL
GAST_HUCK


@<TRIPOS>ATOM
      1 H161        6.6789   11.0999   19.8804 H         1 SUB1        0.221
      2 H231        0.1243    5.0164   17.8646 H         1 SUB1        0.054
      3 H241       -1.4469    6.4583   19.1943 H         1 SUB1        0.057
      4 H251       -0.5823    8.5557   20.2885 H         1 SUB1        0.052
      5 H261        1.8201    9.1944   20.0312 H         1 SUB1        0.057
      6 H331        9.3705    7.6932   16.9955 H         1 SUB1        0.057
      7 H341       10.9278    6.2703   15.6637 H         1 SUB1        0.052
      8 H351       10.0848    4.1578   14.5912 H         1 SUB1        0.057
      9 H361        7.6734    3.5056   14.8545 H         1 SUB1        0.054
     10 H411        5.5995    3.1204   15.6396 H         1 SUB1        0.094
     11 H431        1.9225    3.8502   17.0857 H         1 SUB1        0.094
     12 H441        1.9901    4.0018   14.7729 H         1 SUB1        0.032
     13 H442        2.4486    5.7210   15.0541 H         1 SUB1        0.032
     14 H451        4.5281    5.2998   14.2266 H         1 SUB1        0.032
     15 H452        4.0716    3.5791   13.9514 H         1 SUB1        0.032
     16 N18         6.3370   10.2630   19.4530 N.am      1 SUB1       -0.203
     17 C29         4.9270    9.6930   19.4870 C.2       1 SUB1        0.225
     18 O30         3.9870   10.2130   20.0680 O.2       1 SUB1       -0.373
     19 C10         4.8800    8.4450   18.7220 C.ar      1 SUB1        0.053
     20 C09         3.7830    7.5530   18.4640 C.ar      1 SUB1        0.012
     21 C15         2.3870    7.4760   18.7990 C.ar      1 SUB1       -0.003
     22 C16         1.8740    6.2920   18.1930 C.ar      1 SUB1        0.071
     23 C34         0.4900    5.9220   18.3350 C.ar      1 SUB1       -0.040
     24 C33        -0.4050    6.7390   19.0910 C.ar      1 SUB1       -0.073
     25 C32         0.0850    7.9280   19.7090 C.ar      1 SUB1       -0.075
     26 C31         1.4600    8.2870   19.5600 C.ar      1 SUB1       -0.068
     27 N17         2.9280    5.6750   17.5190 N.pl3     1 SUB1       -0.232
     28 C08         4.0930    6.4170   17.6690 C.ar      1 SUB1        0.107
     29 C07         5.3640    6.1650   17.1600 C.ar      1 SUB1        0.107
     30 N06         5.8000    5.1030   16.3760 N.pl3     1 SUB1       -0.232
     31 C14         7.1480    5.2390   16.0860 C.ar      1 SUB1        0.071
     32 C13         7.6020    6.4390   16.7080 C.ar      1 SUB1       -0.003
     33 C22         8.9950    6.7870   16.5340 C.ar      1 SUB1       -0.068
     34 C21         9.8900    5.9780   15.7760 C.ar      1 SUB1       -0.075
     35 C20         9.4120    4.7830   15.1670 C.ar      1 SUB1       -0.073
     36 C19         8.0420    4.4130   15.3190 C.ar      1 SUB1       -0.040
     37 C12         6.4740    7.0150   17.3860 C.ar      1 SUB1        0.012
     38 C11         6.2080    8.1800   18.1890 C.ar      1 SUB1        0.053
     39 C27         7.0980    9.2560   18.6150 C.2       1 SUB1        0.225
     40 O28         8.2800    9.3470   18.3440 O.2       1 SUB1       -0.373
     41 C05         4.9590    3.9740   15.9060 C.3       1 SUB1        0.163
     42 O01         3.9990    3.6000   16.9070 O.3       1 SUB1       -0.320
     43 C02         2.8140    4.4020   16.7530 C.3       1 SUB1        0.163
     44 C03         2.7220    4.6730   15.2460 C.3       1 SUB1        0.005
     45 C04         4.1190    4.3910   14.6920 C.3       1 SUB1        0.005
@<TRIPOS>BOND
     1   16    1 1  
     2   23    2 1  
     3   24    3 1  
     4   25    4 1  
     5   26    5 1  
     6   33    6 1  
     7   34    7 1  
     8   35    8 1  
     9   36    9 1  
    10   41   10 1  
    11   43   11 1  
    12   44   12 1  
    13   44   13 1  
    14   45   14 1  
    15   45   15 1  
    16   17   16 am 
    17   39   16 am 
    18   17   18 2  
    19   19   17 1  
    20   20   19 ar 
    21   19   38 ar 
    22   20   21 ar 
    23   28   20 ar 
    24   22   21 ar 
    25   21   26 ar 
    26   22   23 ar 
    27   27   22 1  
    28   23   24 ar 
    29   24   25 ar 
    30   26   25 ar 
    31   27   28 1  
    32   43   27 1  
    33   28   29 ar 
    34   30   29 1  
    35   29   37 ar 
    36   30   31 1  
    37   41   30 1  
    38   31   32 ar 
    39   31   36 ar 
    40   32   33 ar 
    41   37   32 ar 
    42   33   34 ar 
    43   35   34 ar 
    44   36   35 ar 
    45   37   38 ar 
    46   38   39 1  
    47   39   40 2  
    48   42   41 1  
    49   41   45 1  
    50   43   42 1  
    51   43   44 1  
    52   44   45 1  
@<TRIPOS>SUBSTRUCTURE
     1 SUB1        1 GROUP

