1nvs_ligand
  -I-interpret- 

 45 52  0  0  0  0  0  0  0  0999 V2000
    6.6789   11.0999   19.8804 H   0  0  0  0  0
    0.1243    5.0164   17.8646 H   0  0  0  0  0
   -1.4469    6.4583   19.1943 H   0  0  0  0  0
   -0.5823    8.5557   20.2885 H   0  0  0  0  0
    1.8201    9.1944   20.0312 H   0  0  0  0  0
    9.3705    7.6932   16.9955 H   0  0  0  0  0
   10.9278    6.2703   15.6637 H   0  0  0  0  0
   10.0848    4.1578   14.5912 H   0  0  0  0  0
    7.6734    3.5056   14.8545 H   0  0  0  0  0
    5.5995    3.1204   15.6396 H   0  0  0  0  0
    1.9225    3.8502   17.0857 H   0  0  0  0  0
    1.9901    4.0018   14.7729 H   0  0  0  0  0
    2.4486    5.7210   15.0541 H   0  0  0  0  0
    4.5281    5.2998   14.2266 H   0  0  0  0  0
    4.0716    3.5791   13.9514 H   0  0  0  0  0
    6.3370   10.2630   19.4530 N   0  0  0  0  0
    4.9270    9.6930   19.4870 C   0  0  0  0  0
    3.9870   10.2130   20.0680 O   0  0  0  0  0
    4.8800    8.4450   18.7220 C   0  0  0  0  0
    3.7830    7.5530   18.4640 C   0  0  0  0  0
    2.3870    7.4760   18.7990 C   0  0  0  0  0
    1.8740    6.2920   18.1930 C   0  0  0  0  0
    0.4900    5.9220   18.3350 C   0  0  0  0  0
   -0.4050    6.7390   19.0910 C   0  0  0  0  0
    0.0850    7.9280   19.7090 C   0  0  0  0  0
    1.4600    8.2870   19.5600 C   0  0  0  0  0
    2.9280    5.6750   17.5190 N   0  0  0  0  0
    4.0930    6.4170   17.6690 C   0  0  0  0  0
    5.3640    6.1650   17.1600 C   0  0  0  0  0
    5.8000    5.1030   16.3760 N   0  0  0  0  0
    7.1480    5.2390   16.0860 C   0  0  0  0  0
    7.6020    6.4390   16.7080 C   0  0  0  0  0
    8.9950    6.7870   16.5340 C   0  0  0  0  0
    9.8900    5.9780   15.7760 C   0  0  0  0  0
    9.4120    4.7830   15.1670 C   0  0  0  0  0
    8.0420    4.4130   15.3190 C   0  0  0  0  0
    6.4740    7.0150   17.3860 C   0  0  0  0  0
    6.2080    8.1800   18.1890 C   0  0  0  0  0
    7.0980    9.2560   18.6150 C   0  0  0  0  0
    8.2800    9.3470   18.3440 O   0  0  0  0  0
    4.9590    3.9740   15.9060 C   0  0  0  0  0
    3.9990    3.6000   16.9070 O   0  0  0  0  0
    2.8140    4.4020   16.7530 C   0  0  0  0  0
    2.7220    4.6730   15.2460 C   0  0  0  0  0
    4.1190    4.3910   14.6920 C   0  0  0  0  0
 16  1  1  0  0  0
 23  2  1  0  0  0
 24  3  1  0  0  0
 25  4  1  0  0  0
 26  5  1  0  0  0
 33  6  1  0  0  0
 34  7  1  0  0  0
 35  8  1  0  0  0
 36  9  1  0  0  0
 41 10  1  0  0  0
 43 11  1  0  0  0
 44 12  1  0  0  0
 44 13  1  0  0  0
 45 14  1  0  0  0
 45 15  1  0  0  0
 17 16  1  0  0  0
 39 16  1  0  0  0
 17 18  2  0  0  0
 19 17  1  0  0  0
 20 19  4  0  0  0
 19 38  4  0  0  0
 20 21  4  0  0  0
 28 20  4  0  0  0
 22 21  4  0  0  0
 21 26  4  0  0  0
 22 23  4  0  0  0
 27 22  1  0  0  0
 23 24  4  0  0  0
 24 25  4  0  0  0
 26 25  4  0  0  0
 27 28  1  0  0  0
 43 27  1  0  0  0
 28 29  4  0  0  0
 30 29  1  0  0  0
 29 37  4  0  0  0
 30 31  1  0  0  0
 41 30  1  0  0  0
 31 32  4  0  0  0
 31 36  4  0  0  0
 32 33  4  0  0  0
 37 32  4  0  0  0
 33 34  4  0  0  0
 35 34  4  0  0  0
 36 35  4  0  0  0
 37 38  4  0  0  0
 38 39  1  0  0  0
 39 40  2  0  0  0
 42 41  1  0  0  0
 41 45  1  0  0  0
 43 42  1  0  0  0
 43 44  1  0  0  0
 44 45  1  0  0  0
M  END
$$$$
