### 
### Created by X-TOOL on Sun Jun  3 12:23:46 2007
### 

@<TRIPOS>MOLECULE
2fxv_ligand
   36    38     1     0     0
SMALL
GAST_HUCK


@<TRIPOS>ATOM
      1 P          12.6590   14.4740    3.5030 P.3       1 SUB1        0.205
      2 O1P        12.2320   13.9340    4.9310 O.co2     1 SUB1       -0.535
      3 O2P        13.1780   13.3790    2.6650 O.co2     1 SUB1       -0.535
      4 O3P        11.4670   15.1680    3.0130 O.co2     1 SUB1       -0.535
      5 O5         13.7590   15.5460    3.7430 O.3       1 SUB1       -0.320
      6 C5         13.5470   16.7260    4.4830 C.3       1 SUB1        0.094
      7 C4         14.5560   17.0370    5.5450 C.3       1 SUB1        0.118
      8 O4         15.7680   17.2010    4.7830 O.3       1 SUB1       -0.336
      9 C3         14.3770   18.3820    6.3030 C.3       1 SUB1        0.115
     10 O3         14.3820   18.0940    7.7590 O.3       1 SUB1       -0.386
     11 C2         15.5370   19.2450    5.8950 C.3       1 SUB1        0.139
     12 O2         16.4000   19.6660    6.9470 O.3       1 SUB1       -0.384
     13 C1         16.3470   18.5020    4.8670 C.3       1 SUB1        0.199
     14 N9         16.2410   18.9010    3.4150 N.pl3     1 SUB1       -0.210
     15 C8         15.7090   18.3920    2.2660 C.2       1 SUB1        0.096
     16 N7         15.8760   19.1140    1.1880 N.2       1 SUB1       -0.324
     17 C5         16.5800   20.2140    1.5990 C.2       1 SUB1        0.093
     18 C6         17.0800   21.3340    0.9930 C.2       1 SUB1        0.213
     19 O6         16.9360   21.5310   -0.2320 O.2       1 SUB1       -0.409
     20 N1         17.7950   22.3300    1.7430 N.am      1 SUB1       -0.184
     21 C2         18.0170   22.1990    3.1420 C.2       1 SUB1        0.234
     22 N2         18.6750   23.1200    3.8290 N.pl3     1 SUB1       -0.281
     23 N3         17.5220   21.0620    3.7920 N.2       1 SUB1       -0.276
     24 C4         16.8060   20.0780    3.0000 C.2       1 SUB1        0.116
     25 H          12.5639   16.6438    4.9695 H         1 SUB1        0.064
     26 H          13.5365   17.5677    3.7749 H         1 SUB1        0.064
     27 H          14.6166   16.2087    6.2663 H         1 SUB1        0.065
     28 H          13.4295   18.8664    6.0244 H         1 SUB1        0.065
     29 H          15.2081   17.6901    7.9980 H         1 SUB1        0.210
     30 H          15.1230   20.1519    5.4302 H         1 SUB1        0.068
     31 H          16.7738   18.9035    7.3728 H         1 SUB1        0.210
     32 H          17.4007   18.4879    5.1825 H         1 SUB1        0.100
     33 H          15.1773   17.4418    2.2476 H         1 SUB1        0.118
     34 H          18.1460   23.1372    1.2684 H         1 SUB1        0.252
     35 H          18.8218   23.0003    4.8414 H         1 SUB1        0.190
     36 H          19.0401   23.9561    3.3510 H         1 SUB1        0.190
@<TRIPOS>BOND
     1    1    2 2  
     2    1    3 2  
     3    1    4 2  
     4    1    5 1  
     5    5    6 1  
     6    6    7 1  
     7    7    8 1  
     8    7    9 1  
     9    8   13 1  
    10    9   10 1  
    11    9   11 1  
    12   11   12 1  
    13   11   13 1  
    14   13   14 1  
    15   14   15 1  
    16   14   24 1  
    17   15   16 2  
    18   16   17 1  
    19   17   18 1  
    20   17   24 2  
    21   18   19 2  
    22   18   20 am 
    23   20   21 am 
    24   21   22 1  
    25   21   23 2  
    26   23   24 1  
    27    6   25 1  
    28    6   26 1  
    29    7   27 1  
    30    9   28 1  
    31   10   29 1  
    32   11   30 1  
    33   12   31 1  
    34   13   32 1  
    35   15   33 1  
    36   20   34 1  
    37   22   35 1  
    38   22   36 1  
@<TRIPOS>SUBSTRUCTURE
     1 SUB1        1 GROUP

