### 
### Created by X-TOOL on Mon Oct 24 22:27:29 2005
### 

@<TRIPOS>MOLECULE
1uwf_ligand
   36    36     1     0     0
SMALL
GAST_HUCK


@<TRIPOS>ATOM
      1 C3'         9.6880   14.7890   40.6340 C.3       1 SUB1       -0.054
      2 C4'         9.6030   14.0160   41.9330 C.3       1 SUB1       -0.065
      3 C1'         9.0430   15.4140   38.1340 C.3       1 SUB1        0.051
      4 C2'         8.8570   14.5640   39.3790 C.3       1 SUB1       -0.030
      5 C2          7.2140   14.8730   34.8130 C.3       1 SUB1        0.134
      6 O2          7.4110   15.3800   33.5040 O.3       1 SUB1       -0.384
      7 C3          7.3680   13.2960   34.7580 C.3       1 SUB1        0.114
      8 O3          6.3800   12.7570   33.8740 O.3       1 SUB1       -0.386
      9 C4          8.7660   12.9250   34.2330 C.3       1 SUB1        0.112
     10 O4          8.9190   11.4860   34.1850 O.3       1 SUB1       -0.387
     11 C5          9.8510   13.5190   35.1970 C.3       1 SUB1        0.113
     12 O5          9.6810   15.0020   35.2810 O.3       1 SUB1       -0.340
     13 C6         11.2620   13.2090   34.7100 C.3       1 SUB1        0.073
     14 O6         11.5150   13.7850   33.4460 O.3       1 SUB1       -0.392
     15 O1          8.1120   14.9640   37.1100 O.3       1 SUB1       -0.349
     16 C1          8.3350   15.4590   35.7760 C.3       1 SUB1        0.188
     17 H11        10.7322   14.6786   40.3062 H         1 SUB1        0.026
     18 H12         9.5004   15.8360   40.9143 H         1 SUB1        0.026
     19 H21        10.3350   14.4193   42.6482 H         1 SUB1        0.023
     20 H22         9.8220   12.9549   41.7433 H         1 SUB1        0.023
     21 H23         8.5903   14.1123   42.3514 H         1 SUB1        0.023
     22 H31        10.0744   15.3091   37.7665 H         1 SUB1        0.056
     23 H32         8.8449   16.4689   38.3746 H         1 SUB1        0.056
     24 H41         7.8054   14.6818   39.6794 H         1 SUB1        0.029
     25 H42         9.0363   13.5230   39.0721 H         1 SUB1        0.029
     26 H51         6.2150   15.1482   35.1822 H         1 SUB1        0.067
     27 H61         6.7610   15.0071   32.9200 H         1 SUB1        0.210
     28 H71         7.2306   12.8781   35.7662 H         1 SUB1        0.065
     29 H81         6.5025   13.1203   33.0047 H         1 SUB1        0.210
     30 H91         8.8995   13.3413   33.2236 H         1 SUB1        0.065
     31 H101        8.2619   11.1179   33.6060 H         1 SUB1        0.210
     32 H111        9.7153   13.0802   36.1965 H         1 SUB1        0.065
     33 H131       11.3821   12.1181   34.6354 H         1 SUB1        0.058
     34 H132       11.9857   13.6088   35.4355 H         1 SUB1        0.058
     35 H141       11.4181   14.7283   33.5040 H         1 SUB1        0.209
     36 H161        8.2922   16.5582   35.7763 H         1 SUB1        0.094
@<TRIPOS>BOND
     1    1    2 1  
     2    4    1 1  
     3    3    4 1  
     4   15    3 1  
     5    5    6 1  
     6    5    7 1  
     7   16    5 1  
     8    7    8 1  
     9    7    9 1  
    10    9   10 1  
    11   11    9 1  
    12   12   11 1  
    13   11   13 1  
    14   16   12 1  
    15   13   14 1  
    16   15   16 1  
    17    1   17 1  
    18    1   18 1  
    19    2   19 1  
    20    2   20 1  
    21    2   21 1  
    22    3   22 1  
    23    3   23 1  
    24    4   24 1  
    25    4   25 1  
    26    5   26 1  
    27    6   27 1  
    28    7   28 1  
    29    8   29 1  
    30    9   30 1  
    31   10   31 1  
    32   11   32 1  
    33   13   33 1  
    34   13   34 1  
    35   14   35 1  
    36   16   36 1  
@<TRIPOS>SUBSTRUCTURE
     1 SUB1        1 GROUP

