### 
### Created by X-TOOL on Mon Oct 24 22:19:48 2005
### 

@<TRIPOS>MOLECULE
1o2o_ligand
   45    47     1     0     0
SMALL
GAST_HUCK


@<TRIPOS>ATOM
      1 C1         44.1880   -3.1020   25.5850 C.ar      1 SUB1        0.205
      2 C2         44.2010   -1.6810   25.5630 C.ar      1 SUB1        0.173
      3 F2         44.3260   -0.9350   24.3750 F         1 SUB1       -0.186
      4 C3         44.0590   -0.9570   26.7430 C.ar      1 SUB1       -0.002
      5 C4         43.9020   -1.6370   27.9170 C.ar      1 SUB1        0.079
      6 C5         43.8810   -2.9730   27.9820 C.ar      1 SUB1        0.031
      7 C6         44.0200   -3.7470   26.8380 C.ar      1 SUB1       -0.008
      8 C7         44.3400   -3.8520   24.3870 C.cat     1 SUB1        0.310
      9 N1         43.9510   -5.1060   24.2820 N.pl3     1 SUB1       -0.202
     10 N2         44.9060   -3.2740   23.3690 N.pl3     1 SUB1       -0.202
     11 N3         43.7590   -1.2260   29.1230 N.pl3     1 SUB1       -0.253
     12 N4         43.7230   -3.4170   29.2050 N.2       1 SUB1       -0.313
     13 C8         43.6540   -2.2770   29.8770 C.2       1 SUB1        0.132
     14 C1'        43.4530   -2.1950   31.2690 C.ar      1 SUB1        0.056
     15 C2'        43.2800   -3.3680   32.0060 C.ar      1 SUB1       -0.063
     16 C3'        43.0790   -3.3070   33.3850 C.ar      1 SUB1       -0.076
     17 C4'        43.0500   -2.0990   34.0420 C.ar      1 SUB1       -0.037
     18 C5'        43.2200   -0.9150   33.3430 C.ar      1 SUB1        0.126
     19 C6'        43.4180   -0.9570   31.9570 C.ar      1 SUB1        0.138
     20 O6'        43.5460    0.2410   31.2890 O.3       1 SUB1       -0.330
     21 O5'        43.2380    0.2990   34.0160 O.3       1 SUB1       -0.320
     22 C10        43.3240    0.4700   35.4480 C.3       1 SUB1        0.070
     23 C20        43.7530    1.9590   35.8950 C.3       1 SUB1       -0.019
     24 C30        44.7920    1.8840   37.0500 C.3       1 SUB1       -0.060
     25 C40        44.3990    2.7440   34.7730 C.3       1 SUB1       -0.060
     26 H41        44.0660    0.1220   26.7410 H         1 SUB1        0.053
     27 H71        44.0000   -4.8250   26.9160 H         1 SUB1        0.059
     28 H91        43.5870   -5.5550   25.1130 H         1 SUB1        0.192
     29 H92        44.0190   -5.6910   23.4770 H         1 SUB1        0.192
     30 H101       45.2900   -2.3510   23.4700 H         1 SUB1        0.192
     31 H102       45.0450   -3.7340   22.4960 H         1 SUB1        0.192
     32 H111       43.7290   -0.3060   29.4950 H         1 SUB1        0.229
     33 H151       43.3040   -4.3290   31.5150 H         1 SUB1        0.054
     34 H161       42.9450   -4.2160   33.9500 H         1 SUB1        0.051
     35 H171       42.8900   -2.0850   35.1100 H         1 SUB1        0.054
     36 H221       42.3450    0.2750   35.8660 H         1 SUB1        0.061
     37 H222       44.0220   -0.2530   35.8430 H         1 SUB1        0.061
     38 H231       42.8970    2.5180   36.2490 H         1 SUB1        0.032
     39 H241       45.0070    2.8710   37.4380 H         1 SUB1        0.023
     40 H242       44.4160    1.2740   37.8560 H         1 SUB1        0.023
     41 H243       45.7120    1.4470   36.6870 H         1 SUB1        0.023
     42 H251       43.6630    3.0690   34.0510 H         1 SUB1        0.023
     43 H252       44.8960    3.6150   35.1760 H         1 SUB1        0.023
     44 H253       45.1330    2.1300   34.2800 H         1 SUB1        0.023
     45 H201       43.6746    0.0737   30.3628 H         1 SUB1        0.248
@<TRIPOS>BOND
     1    1    2 ar 
     2    1    7 ar 
     3    1    8 1  
     4    2    3 1  
     5    2    4 ar 
     6    4    5 ar 
     7    4   26 1  
     8    5    6 ar 
     9    5   11 1  
    10    6    7 ar 
    11    6   12 1  
    12    7   27 1  
    13    8    9 1  
    14    8   10 1  
    15    9   28 1  
    16    9   29 1  
    17   10   30 1  
    18   10   31 1  
    19   11   13 1  
    20   11   32 1  
    21   12   13 2  
    22   13   14 1  
    23   14   15 ar 
    24   14   19 ar 
    25   15   16 ar 
    26   15   33 1  
    27   16   17 ar 
    28   16   34 1  
    29   17   18 ar 
    30   17   35 1  
    31   18   19 ar 
    32   18   21 1  
    33   19   20 1  
    34   21   22 1  
    35   22   23 1  
    36   22   36 1  
    37   22   37 1  
    38   23   24 1  
    39   23   25 1  
    40   23   38 1  
    41   24   39 1  
    42   24   40 1  
    43   24   41 1  
    44   25   42 1  
    45   25   43 1  
    46   25   44 1  
    47   20   45 1  
@<TRIPOS>SUBSTRUCTURE
     1 SUB1        1 GROUP

