1o2o_ligand
  -I-interpret- 

 45 47  0  0  0  0  0  0  0  0999 V2000
   44.1880   -3.1020   25.5850 C   0  0  0  0  0
   44.2010   -1.6810   25.5630 C   0  0  0  0  0
   44.3260   -0.9350   24.3750 F   0  0  0  0  0
   44.0590   -0.9570   26.7430 C   0  0  0  0  0
   43.9020   -1.6370   27.9170 C   0  0  0  0  0
   43.8810   -2.9730   27.9820 C   0  0  0  0  0
   44.0200   -3.7470   26.8380 C   0  0  0  0  0
   44.3400   -3.8520   24.3870 C   0  3  0  0  0
   43.9510   -5.1060   24.2820 N   0  0  0  0  0
   44.9060   -3.2740   23.3690 N   0  0  0  0  0
   43.7590   -1.2260   29.1230 N   0  0  0  0  0
   43.7230   -3.4170   29.2050 N   0  0  0  0  0
   43.6540   -2.2770   29.8770 C   0  0  0  0  0
   43.4530   -2.1950   31.2690 C   0  0  0  0  0
   43.2800   -3.3680   32.0060 C   0  0  0  0  0
   43.0790   -3.3070   33.3850 C   0  0  0  0  0
   43.0500   -2.0990   34.0420 C   0  0  0  0  0
   43.2200   -0.9150   33.3430 C   0  0  0  0  0
   43.4180   -0.9570   31.9570 C   0  0  0  0  0
   43.5460    0.2410   31.2890 O   0  0  0  0  0
   43.2380    0.2990   34.0160 O   0  0  0  0  0
   43.3240    0.4700   35.4480 C   0  0  0  0  0
   43.7530    1.9590   35.8950 C   0  0  0  0  0
   44.7920    1.8840   37.0500 C   0  0  0  0  0
   44.3990    2.7440   34.7730 C   0  0  0  0  0
   44.0660    0.1220   26.7410 H   0  0  0  0  0
   44.0000   -4.8250   26.9160 H   0  0  0  0  0
   43.5870   -5.5550   25.1130 H   0  0  0  0  0
   44.0190   -5.6910   23.4770 H   0  0  0  0  0
   45.2900   -2.3510   23.4700 H   0  0  0  0  0
   45.0450   -3.7340   22.4960 H   0  0  0  0  0
   43.7290   -0.3060   29.4950 H   0  0  0  0  0
   43.3040   -4.3290   31.5150 H   0  0  0  0  0
   42.9450   -4.2160   33.9500 H   0  0  0  0  0
   42.8900   -2.0850   35.1100 H   0  0  0  0  0
   42.3450    0.2750   35.8660 H   0  0  0  0  0
   44.0220   -0.2530   35.8430 H   0  0  0  0  0
   42.8970    2.5180   36.2490 H   0  0  0  0  0
   45.0070    2.8710   37.4380 H   0  0  0  0  0
   44.4160    1.2740   37.8560 H   0  0  0  0  0
   45.7120    1.4470   36.6870 H   0  0  0  0  0
   43.6630    3.0690   34.0510 H   0  0  0  0  0
   44.8960    3.6150   35.1760 H   0  0  0  0  0
   45.1330    2.1300   34.2800 H   0  0  0  0  0
   43.6746    0.0737   30.3628 H   0  0  0  0  0
  1  2  4  0  0  0
  1  7  4  0  0  0
  1  8  1  0  0  0
  2  3  1  0  0  0
  2  4  4  0  0  0
  4  5  4  0  0  0
  4 26  1  0  0  0
  5  6  4  0  0  0
  5 11  1  0  0  0
  6  7  4  0  0  0
  6 12  1  0  0  0
  7 27  1  0  0  0
  8  9  1  0  0  0
  8 10  1  0  0  0
  9 28  1  0  0  0
  9 29  1  0  0  0
 10 30  1  0  0  0
 10 31  1  0  0  0
 11 13  1  0  0  0
 11 32  1  0  0  0
 12 13  2  0  0  0
 13 14  1  0  0  0
 14 15  4  0  0  0
 14 19  4  0  0  0
 15 16  4  0  0  0
 15 33  1  0  0  0
 16 17  4  0  0  0
 16 34  1  0  0  0
 17 18  4  0  0  0
 17 35  1  0  0  0
 18 19  4  0  0  0
 18 21  1  0  0  0
 19 20  1  0  0  0
 21 22  1  0  0  0
 22 23  1  0  0  0
 22 36  1  0  0  0
 22 37  1  0  0  0
 23 24  1  0  0  0
 23 25  1  0  0  0
 23 38  1  0  0  0
 24 39  1  0  0  0
 24 40  1  0  0  0
 24 41  1  0  0  0
 25 42  1  0  0  0
 25 43  1  0  0  0
 25 44  1  0  0  0
 20 45  1  0  0  0
M  END
$$$$
