1mmp_ligand
  -I-interpret- 

 66 68  0  0  0  0  0  0  0  0999 V2000
   10.5855   43.8374   68.0296 H   0  0  0  0  0
    9.9159   43.4310   66.4131 H   0  0  0  0  0
    9.8312   46.2936   67.4402 H   0  0  0  0  0
    9.0736   46.4465   69.4651 H   0  0  0  0  0
    7.4851   44.2966   70.6788 H   0  0  0  0  0
    5.4089   44.3206   71.1151 H   0  0  0  0  0
    3.4122   45.7682   69.9123 H   0  0  0  0  0
    3.8178   46.7827   71.3381 H   0  0  0  0  0
    3.0450   43.7958   71.3797 H   0  0  0  0  0
    1.9989   45.1605   71.8993 H   0  0  0  0  0
    4.6279   44.3710   73.2449 H   0  0  0  0  0
    3.0007   43.8343   73.7842 H   0  0  0  0  0
    2.3797   46.1827   74.2613 H   0  0  0  0  0
    4.0011   46.7263   73.7115 H   0  0  0  0  0
    4.0561   44.6095   75.7870 H   0  0  0  0  0
    3.2797   46.1399   76.3178 H   0  0  0  0  0
    5.6815   46.0327   76.9538 H   0  0  0  0  0
    5.3516   47.3884   75.8226 H   0  0  0  0  0
    7.9953   44.6588   65.6403 H   0  0  0  0  0
    9.2469   45.8220   65.0859 H   0  0  0  0  0
    6.7937   46.5465   66.7627 H   0  0  0  0  0
    7.3668   48.8811   66.1810 H   0  0  0  0  0
    8.8480   48.3120   65.3392 H   0  0  0  0  0
    8.6841   48.0939   67.1146 H   0  0  0  0  0
    6.2516   45.6809   64.5011 H   0  0  0  0  0
    7.3795   46.8763   63.7762 H   0  0  0  0  0
    5.9064   47.4385   64.6369 H   0  0  0  0  0
    8.4767   46.9812   71.7839 H   0  0  0  0  0
    9.3849   45.4331   71.8553 H   0  0  0  0  0
    6.6053   47.3964   73.5800 H   0  0  0  0  0
    9.0070   42.9860   72.7309 H   0  0  0  0  0
    6.1367   43.5859   76.7989 H   0  0  0  0  0
   11.5580   44.7910   66.3890 C   0  0  0  0  0
   11.9450   44.4720   65.1460 O   0  5  0  0  0
   12.2690   45.6630   66.8920 O   0  0  0  0  0
   10.3330   44.2360   67.0360 C   0  0  0  0  0
    9.3130   45.3600   67.1760 C   0  0  0  0  0
    8.3840   44.9480   68.3140 C   0  0  0  0  0
    7.6430   43.9600   68.2230 O   0  0  0  0  0
    8.4420   45.6720   69.4300 N   0  0  0  0  0
    7.6250   45.3850   70.6030 C   0  0  0  0  0
    6.2760   46.0300   70.5310 C   0  0  0  0  0
    6.1860   47.2190   70.2100 O   0  0  0  0  0
    5.2370   45.2760   70.8750 N   0  0  0  0  0
    3.8440   45.7640   70.9240 C   0  0  0  0  0
    3.0340   44.7920   71.8460 C   0  0  0  0  0
    3.5640   44.6450   73.2990 C   0  0  0  0  0
    3.4420   45.9070   74.1870 C   0  0  0  0  0
    3.9970   45.6940   75.6130 C   0  0  0  0  0
    5.3930   46.2940   75.9250 C   0  0  0  0  0
    6.3890   45.7520   74.9850 N   0  0  0  0  0
    8.5260   45.5910   65.8840 C   0  0  0  0  0
    7.4860   46.7310   65.9280 C   0  0  0  0  0
    8.1430   48.1020   66.1570 C   0  0  0  0  0
    6.7010   46.6780   64.6190 C   0  0  0  0  0
    8.3830   45.8870   71.8460 C   0  0  0  0  0
    7.6940   45.5410   73.1080 C   0  0  0  0  0
    6.8560   46.3740   73.8590 C   0  0  0  0  0
    7.7320   44.3310   73.8390 C   0  0  0  0  0
    6.9140   44.4990   74.9990 C   0  0  0  0  0
    8.3880   43.1240   73.6100 C   0  0  0  0  0
    6.7590   43.4620   75.9200 C   0  0  0  0  0
    8.2290   42.1010   74.5370 C   0  0  0  0  0
    7.4220   42.2710   75.6800 C   0  0  0  0  0
    8.7346   41.1554   74.3782 H   0  0  0  0  0
    7.3187   41.4535   76.3844 H   0  0  0  0  0
 36  1  1  0  0  0
 36  2  1  0  0  0
 37  3  1  0  0  0
 40  4  1  0  0  0
 41  5  1  0  0  0
 44  6  1  0  0  0
 45  7  1  0  0  0
 45  8  1  0  0  0
 46  9  1  0  0  0
 46 10  1  0  0  0
 47 11  1  0  0  0
 47 12  1  0  0  0
 48 13  1  0  0  0
 48 14  1  0  0  0
 49 15  1  0  0  0
 49 16  1  0  0  0
 50 17  1  0  0  0
 50 18  1  0  0  0
 52 19  1  0  0  0
 52 20  1  0  0  0
 53 21  1  0  0  0
 54 22  1  0  0  0
 54 23  1  0  0  0
 54 24  1  0  0  0
 55 25  1  0  0  0
 55 26  1  0  0  0
 55 27  1  0  0  0
 56 28  1  0  0  0
 56 29  1  0  0  0
 58 30  1  0  0  0
 61 31  1  0  0  0
 62 32  1  0  0  0
 63 65  1  0  0  0
 64 66  1  0  0  0
 36 33  1  0  0  0
 33 35  2  0  0  0
 33 34  1  0  0  0
 37 36  1  0  0  0
 52 37  1  0  0  0
 37 38  1  0  0  0
 38 40  1  0  0  0
 38 39  2  0  0  0
 40 41  1  0  0  0
 41 56  1  0  0  0
 41 42  1  0  0  0
 42 44  1  0  0  0
 42 43  2  0  0  0
 44 45  1  0  0  0
 45 46  1  0  0  0
 46 47  1  0  0  0
 47 48  1  0  0  0
 48 49  1  0  0  0
 50 49  1  0  0  0
 51 50  1  0  0  0
 60 51  1  0  0  0
 58 51  1  0  0  0
 57 58  2  0  0  0
 57 59  1  0  0  0
 56 57  1  0  0  0
 59 61  4  0  0  0
 59 60  4  0  0  0
 60 62  4  0  0  0
 62 64  4  0  0  0
 63 64  4  0  0  0
 61 63  4  0  0  0
 53 52  1  0  0  0
 53 55  1  0  0  0
 53 54  1  0  0  0
M  END
$$$$
