### 
### Created by X-TOOL on Tue Oct 25 02:06:17 2005
### 

@<TRIPOS>MOLECULE
7hvp_ligand
  130   131     1     0     0
SMALL
GAST_HUCK


@<TRIPOS>ATOM
      1 C           1.8900    6.1930    5.0320 C.2       1 SUB1        0.175
      2 O           1.9330    5.1170    4.3950 O.2       1 SUB1       -0.397
      3 CH3         2.4200    7.5110    4.5260 C.3       1 SUB1        0.026
      4 N           1.0850    6.0030    6.1060 N.am      1 SUB1       -0.264
      5 CA          1.7030    5.7550    7.3760 C.3       1 SUB1        0.154
      6 C           2.5360    4.5050    7.5630 C.2       1 SUB1        0.206
      7 O           2.5860    3.5320    6.7940 O.2       1 SUB1       -0.394
      8 CB          0.7460    5.8670    8.5450 C.3       1 SUB1        0.084
      9 OG          0.1500    7.1780    8.4830 O.3       1 SUB1       -0.390
     10 N           3.1770    4.6710    8.7260 N.am      1 SUB1       -0.264
     11 CA          4.0830    3.6220    9.2140 C.3       1 SUB1        0.131
     12 C           3.5330    3.2510   10.5710 C.2       1 SUB1        0.204
     13 O           3.1160    4.1120   11.3100 O.2       1 SUB1       -0.394
     14 CB          5.4450    4.2020    8.9740 C.3       1 SUB1       -0.010
     15 CG          6.2150    4.0280    7.6840 C.3       1 SUB1       -0.043
     16 CD1         5.4030    3.6960    6.4770 C.3       1 SUB1       -0.062
     17 CD2         6.9000    5.3890    7.4620 C.3       1 SUB1       -0.062
     18 N           3.5060    1.9680   10.8460 N.am      1 SUB1       -0.262
     19 CA          2.9800    1.3330   12.0640 C.3       1 SUB1        0.147
     20 C           3.8620    0.1310   12.4520 C.2       1 SUB1        0.205
     21 O           3.8420   -0.9570   11.8670 O.2       1 SUB1       -0.394
     22 CB          1.5090    0.9180   11.9080 C.3       1 SUB1        0.077
     23 CG          0.6970    2.0820   11.3510 C.2       1 SUB1        0.178
     24 OD1         0.4850    2.0330   10.1290 O.2       1 SUB1       -0.397
     25 ND2         0.3730    3.0610   12.1970 N.am      1 SUB1       -0.301
     26 N           4.6270    0.4750   13.4820 N.am      1 SUB1       -0.277
     27 CA          5.6090   -0.3730   14.1650 C.3       1 SUB1        0.082
     28 C           5.0400   -1.0900   15.3970 C.3       1 SUB1        0.119
     29 O           4.8670   -0.0360   16.3930 O.3       1 SUB1       -0.384
     30 CB          6.8300    0.5450   14.3650 C.3       1 SUB1        0.007
     31 CG          7.4270    0.7800   12.9640 C.ar      1 SUB1       -0.041
     32 CD1         7.8070   -0.3190   12.1930 C.ar      1 SUB1       -0.060
     33 CD2         7.6290    2.0510   12.4430 C.ar      1 SUB1       -0.060
     34 CE1         8.3210   -0.1260   10.9420 C.ar      1 SUB1       -0.069
     35 CE2         8.1910    2.2740   11.2040 C.ar      1 SUB1       -0.069
     36 CZ          8.5030    1.1740   10.4430 C.ar      1 SUB1       -0.069
     37 C           3.6670   -1.7210   15.0170 C.3       1 SUB1       -0.001
     38 N           3.0130   -2.9590   15.6070 N.4       1 SUB1        0.256
     39 CA          4.0320   -3.6730   16.4450 C.3       1 SUB1        0.069
     40 C           5.3640   -4.1290   15.8560 C.2       1 SUB1        0.227
     41 O           5.7260   -4.0200   14.6580 O.2       1 SUB1       -0.391
     42 CB          3.0600   -4.8450   16.8340 C.3       1 SUB1        0.013
     43 CG          2.4080   -5.2020   15.5400 C.3       1 SUB1       -0.005
     44 CD          2.3930   -3.9340   14.6930 C.3       1 SUB1       -0.029
     45 N           6.1730   -4.6260   16.7760 N.am      1 SUB1       -0.261
     46 CA          7.4640   -5.2520   16.6960 C.3       1 SUB1        0.134
     47 C           7.1170   -6.5180   17.5770 C.2       1 SUB1        0.204
     48 O           6.6910   -6.3260   18.7100 O.2       1 SUB1       -0.394
     49 CB          8.8620   -4.7610   17.1550 C.3       1 SUB1       -0.004
     50 CG1         9.3560   -3.4290   16.5960 C.3       1 SUB1       -0.049
     51 CG2         9.8760   -5.9420   16.8790 C.3       1 SUB1       -0.058
     52 CD1         9.2870   -3.1030   15.1110 C.3       1 SUB1       -0.065
     53 N           7.2880   -7.6670   16.9590 N.am      1 SUB1       -0.262
     54 CA          6.9170   -8.8700   17.7320 C.3       1 SUB1        0.145
     55 C           7.8460  -10.0170   17.4840 C.2       1 SUB1        0.260
     56 O           8.4950  -10.3760   16.3200 O.2       1 SUB1       -0.368
     57 CB          5.3920   -9.0430   17.4230 C.3       1 SUB1       -0.005
     58 CG1         5.1440  -10.3010   16.6130 C.3       1 SUB1       -0.058
     59 CG2         4.6400   -8.8680   18.7170 C.3       1 SUB1       -0.058
     60 CM          9.4200  -10.2930   19.4970 C.3       1 SUB1        0.066
     61 O           8.3170  -10.8830   18.5900 O.3       1 SUB1       -0.278
     62 H41         0.0896    6.0348    6.0153 H         1 SUB1        0.188
     63 H51         2.4151    6.5859    7.4878 H         1 SUB1        0.082
     64 H81         1.2920    5.7456    9.4922 H         1 SUB1        0.061
     65 H82        -0.0335    5.0945    8.4695 H         1 SUB1        0.061
     66 H91        -0.4585    7.2825    9.2051 H         1 SUB1        0.210
     67 H101        3.0401    5.5050    9.2605 H         1 SUB1        0.188
     68 H111        4.0101    2.7189    8.5902 H         1 SUB1        0.080
     69 H141        6.0894    3.7915    9.7654 H         1 SUB1        0.032
     70 H142        5.3376    5.2876    9.1149 H         1 SUB1        0.032
     71 H151        6.9665    3.2363    7.8197 H         1 SUB1        0.030
     72 H161        4.8768    2.7439    6.6397 H         1 SUB1        0.023
     73 H162        6.0652    3.6043    5.6034 H         1 SUB1        0.023
     74 H163        4.6685    4.4950    6.2980 H         1 SUB1        0.023
     75 H171        6.1349    6.1741    7.3716 H         1 SUB1        0.023
     76 H172        7.4984    5.3523    6.5397 H         1 SUB1        0.023
     77 H173        7.5561    5.6130    8.3160 H         1 SUB1        0.023
     78 H181        3.8842    1.3555   10.1519 H         1 SUB1        0.189
     79 H191        3.0328    2.0703   12.8786 H         1 SUB1        0.083
     80 H221        1.1056    0.6289   12.8897 H         1 SUB1        0.055
     81 H222        1.4423    0.0638   11.2182 H         1 SUB1        0.055
     82 H251        0.6620    3.0117   13.1531 H         1 SUB1        0.181
     83 H252       -0.1589    3.8443   11.8752 H         1 SUB1        0.181
     84 H261        4.5225    1.4078   13.8269 H         1 SUB1        0.186
     85 H271        5.9123   -1.1725   13.4731 H         1 SUB1        0.061
     86 H301        7.5698    0.0585   15.0177 H         1 SUB1        0.045
     87 H302        6.5191    1.5008   14.8120 H         1 SUB1        0.045
     88 H321        7.6947   -1.3232   12.5855 H         1 SUB1        0.056
     89 H331        7.3312    2.9071   13.0376 H         1 SUB1        0.056
     90 H341        8.5897   -0.9805   10.3316 H         1 SUB1        0.060
     91 H351        8.3794    3.2790   10.8442 H         1 SUB1        0.060
     92 H361        8.8957    1.3114    9.4420 H         1 SUB1        0.056
     93 H391        4.2843   -3.0589   17.3221 H         1 SUB1        0.110
     94 H421        2.3147   -4.5096   17.5702 H         1 SUB1        0.035
     95 H422        3.6189   -5.7002   17.2417 H         1 SUB1        0.035
     96 H431        2.9815   -5.9910   15.0315 H         1 SUB1        0.032
     97 H432        1.3803   -5.5520   15.7170 H         1 SUB1        0.032
     98 H441        2.9867   -4.0575   13.7752 H         1 SUB1        0.082
     99 H442        1.3665   -3.6400   14.4288 H         1 SUB1        0.082
    100 H451        5.8178   -4.5520   17.7079 H         1 SUB1        0.189
    101 H461        7.6039   -5.5260   15.6399 H         1 SUB1        0.080
    102 H491        8.8036   -4.6202   18.2444 H         1 SUB1        0.034
    103 H501       10.4158   -3.3499   16.8798 H         1 SUB1        0.027
    104 H502        8.7793   -2.6462   17.1104 H         1 SUB1        0.027
    105 H511        9.5739   -6.8274   17.4576 H         1 SUB1        0.023
    106 H512       10.8880   -5.6345   17.1810 H         1 SUB1        0.023
    107 H513        9.8717   -6.1859   15.8064 H         1 SUB1        0.023
    108 H521        9.8846   -3.8343   14.5470 H         1 SUB1        0.023
    109 H522        9.6859   -2.0925   14.9385 H         1 SUB1        0.023
    110 H523        8.2407   -3.1466   14.7742 H         1 SUB1        0.023
    111 H531        7.6458   -7.7223   16.0268 H         1 SUB1        0.189
    112 H541        7.0091   -8.6419   18.8041 H         1 SUB1        0.082
    113 H571        5.0856   -8.2088   16.7748 H         1 SUB1        0.034
    114 H581        5.6847  -10.2343   15.6574 H         1 SUB1        0.023
    115 H582        4.0664  -10.4052   16.4181 H         1 SUB1        0.023
    116 H583        5.5010  -11.1760   17.1760 H         1 SUB1        0.023
    117 H591        4.9651   -9.6339   19.4365 H         1 SUB1        0.023
    118 H592        3.5610   -8.9739   18.5313 H         1 SUB1        0.023
    119 H593        4.8449   -7.8684   19.1279 H         1 SUB1        0.023
    120 H31         2.2535    8.2890    5.2856 H         1 SUB1        0.047
    121 H32         1.8955    7.7855    3.5989 H         1 SUB1        0.047
    122 H33         3.4975    7.4199    4.3246 H         1 SUB1        0.047
    123 H281        5.7271   -1.8676   15.7619 H         1 SUB1        0.067
    124 H291        4.5140   -0.4111   17.1913 H         1 SUB1        0.210
    125 H371        3.7462   -1.9337   13.9407 H         1 SUB1        0.084
    126 H372        2.9356   -0.9155   15.1787 H         1 SUB1        0.084
    127 H601        9.6845  -11.0239   20.2753 H         1 SUB1        0.058
    128 H602        9.0514   -9.3709   19.9701 H         1 SUB1        0.058
    129 H603       10.3093  -10.0643   18.8914 H         1 SUB1        0.058
    130 H381        2.2769   -2.6303   16.2121 H         1 SUB1        0.206
@<TRIPOS>BOND
     1    1    2 2  
     2    1    3 1  
     3    5    4 1  
     4    5    8 1  
     5    6    5 1  
     6    6    7 2  
     7    8    9 1  
     8    4    1 am 
     9   11   10 1  
    10   11   14 1  
    11   12   11 1  
    12   12   13 2  
    13   14   15 1  
    14   15   16 1  
    15   15   17 1  
    16   10    6 am 
    17   19   18 1  
    18   19   22 1  
    19   20   19 1  
    20   20   21 2  
    21   22   23 1  
    22   23   25 am 
    23   23   24 2  
    24   18   12 am 
    25   27   26 1  
    26   27   30 1  
    27   28   27 1  
    28   28   29 1  
    29   30   31 1  
    30   31   32 ar 
    31   31   33 ar 
    32   33   35 ar 
    33   35   36 ar 
    34   34   36 ar 
    35   32   34 ar 
    36   26   20 am 
    37   40   39 1  
    38   39   42 1  
    39   39   38 1  
    40   38   44 1  
    41   44   43 1  
    42   42   43 1  
    43   40   41 2  
    44   46   45 1  
    45   46   49 1  
    46   47   46 1  
    47   47   48 2  
    48   49   51 1  
    49   49   50 1  
    50   50   52 1  
    51   45   40 am 
    52   54   53 1  
    53   54   57 1  
    54   55   54 1  
    55   55   56 2  
    56   57   59 1  
    57   57   58 1  
    58   53   47 am 
    59   37   28 1  
    60   38   37 1  
    61   61   60 1  
    62   61   55 1  
    63    4   62 1  
    64    5   63 1  
    65    8   64 1  
    66    8   65 1  
    67    9   66 1  
    68   10   67 1  
    69   11   68 1  
    70   14   69 1  
    71   14   70 1  
    72   15   71 1  
    73   16   72 1  
    74   16   73 1  
    75   16   74 1  
    76   17   75 1  
    77   17   76 1  
    78   17   77 1  
    79   18   78 1  
    80   19   79 1  
    81   22   80 1  
    82   22   81 1  
    83   25   82 1  
    84   25   83 1  
    85   26   84 1  
    86   27   85 1  
    87   30   86 1  
    88   30   87 1  
    89   32   88 1  
    90   33   89 1  
    91   34   90 1  
    92   35   91 1  
    93   36   92 1  
    94   39   93 1  
    95   42   94 1  
    96   42   95 1  
    97   43   96 1  
    98   43   97 1  
    99   44   98 1  
   100   44   99 1  
   101   45  100 1  
   102   46  101 1  
   103   49  102 1  
   104   50  103 1  
   105   50  104 1  
   106   51  105 1  
   107   51  106 1  
   108   51  107 1  
   109   52  108 1  
   110   52  109 1  
   111   52  110 1  
   112   53  111 1  
   113   54  112 1  
   114   57  113 1  
   115   58  114 1  
   116   58  115 1  
   117   58  116 1  
   118   59  117 1  
   119   59  118 1  
   120   59  119 1  
   121    3  120 1  
   122    3  121 1  
   123    3  122 1  
   124   28  123 1  
   125   29  124 1  
   126   37  125 1  
   127   37  126 1  
   128   60  127 1  
   129   60  128 1  
   130   60  129 1  
   131   38  130 1  
@<TRIPOS>SUBSTRUCTURE
     1 SUB1        1 GROUP

