7hvp_ligand
  -I-interpret- 

130131  0  0  0  0  0  0  0  0999 V2000
    1.8900    6.1930    5.0320 C   0  0  0  0  0
    1.9330    5.1170    4.3950 O   0  0  0  0  0
    2.4200    7.5110    4.5260 C   0  0  0  0  0
    1.0850    6.0030    6.1060 N   0  0  0  0  0
    1.7030    5.7550    7.3760 C   0  0  0  0  0
    2.5360    4.5050    7.5630 C   0  0  0  0  0
    2.5860    3.5320    6.7940 O   0  0  0  0  0
    0.7460    5.8670    8.5450 C   0  0  0  0  0
    0.1500    7.1780    8.4830 O   0  0  0  0  0
    3.1770    4.6710    8.7260 N   0  0  0  0  0
    4.0830    3.6220    9.2140 C   0  0  0  0  0
    3.5330    3.2510   10.5710 C   0  0  0  0  0
    3.1160    4.1120   11.3100 O   0  0  0  0  0
    5.4450    4.2020    8.9740 C   0  0  0  0  0
    6.2150    4.0280    7.6840 C   0  0  0  0  0
    5.4030    3.6960    6.4770 C   0  0  0  0  0
    6.9000    5.3890    7.4620 C   0  0  0  0  0
    3.5060    1.9680   10.8460 N   0  0  0  0  0
    2.9800    1.3330   12.0640 C   0  0  0  0  0
    3.8620    0.1310   12.4520 C   0  0  0  0  0
    3.8420   -0.9570   11.8670 O   0  0  0  0  0
    1.5090    0.9180   11.9080 C   0  0  0  0  0
    0.6970    2.0820   11.3510 C   0  0  0  0  0
    0.4850    2.0330   10.1290 O   0  0  0  0  0
    0.3730    3.0610   12.1970 N   0  0  0  0  0
    4.6270    0.4750   13.4820 N   0  0  0  0  0
    5.6090   -0.3730   14.1650 C   0  0  0  0  0
    5.0400   -1.0900   15.3970 C   0  0  0  0  0
    4.8670   -0.0360   16.3930 O   0  0  0  0  0
    6.8300    0.5450   14.3650 C   0  0  0  0  0
    7.4270    0.7800   12.9640 C   0  0  0  0  0
    7.8070   -0.3190   12.1930 C   0  0  0  0  0
    7.6290    2.0510   12.4430 C   0  0  0  0  0
    8.3210   -0.1260   10.9420 C   0  0  0  0  0
    8.1910    2.2740   11.2040 C   0  0  0  0  0
    8.5030    1.1740   10.4430 C   0  0  0  0  0
    3.6670   -1.7210   15.0170 C   0  0  0  0  0
    3.0130   -2.9590   15.6070 N   0  3  0  0  0
    4.0320   -3.6730   16.4450 C   0  0  0  0  0
    5.3640   -4.1290   15.8560 C   0  0  0  0  0
    5.7260   -4.0200   14.6580 O   0  0  0  0  0
    3.0600   -4.8450   16.8340 C   0  0  0  0  0
    2.4080   -5.2020   15.5400 C   0  0  0  0  0
    2.3930   -3.9340   14.6930 C   0  0  0  0  0
    6.1730   -4.6260   16.7760 N   0  0  0  0  0
    7.4640   -5.2520   16.6960 C   0  0  0  0  0
    7.1170   -6.5180   17.5770 C   0  0  0  0  0
    6.6910   -6.3260   18.7100 O   0  0  0  0  0
    8.8620   -4.7610   17.1550 C   0  0  0  0  0
    9.3560   -3.4290   16.5960 C   0  0  0  0  0
    9.8760   -5.9420   16.8790 C   0  0  0  0  0
    9.2870   -3.1030   15.1110 C   0  0  0  0  0
    7.2880   -7.6670   16.9590 N   0  0  0  0  0
    6.9170   -8.8700   17.7320 C   0  0  0  0  0
    7.8460  -10.0170   17.4840 C   0  0  0  0  0
    8.4950  -10.3760   16.3200 O   0  0  0  0  0
    5.3920   -9.0430   17.4230 C   0  0  0  0  0
    5.1440  -10.3010   16.6130 C   0  0  0  0  0
    4.6400   -8.8680   18.7170 C   0  0  0  0  0
    9.4200  -10.2930   19.4970 C   0  0  0  0  0
    8.3170  -10.8830   18.5900 O   0  0  0  0  0
    0.0896    6.0348    6.0153 H   0  0  0  0  0
    2.4151    6.5859    7.4878 H   0  0  0  0  0
    1.2920    5.7456    9.4922 H   0  0  0  0  0
   -0.0335    5.0945    8.4695 H   0  0  0  0  0
   -0.4585    7.2825    9.2051 H   0  0  0  0  0
    3.0401    5.5050    9.2605 H   0  0  0  0  0
    4.0101    2.7189    8.5902 H   0  0  0  0  0
    6.0894    3.7915    9.7654 H   0  0  0  0  0
    5.3376    5.2876    9.1149 H   0  0  0  0  0
    6.9665    3.2363    7.8197 H   0  0  0  0  0
    4.8768    2.7439    6.6397 H   0  0  0  0  0
    6.0652    3.6043    5.6034 H   0  0  0  0  0
    4.6685    4.4950    6.2980 H   0  0  0  0  0
    6.1349    6.1741    7.3716 H   0  0  0  0  0
    7.4984    5.3523    6.5397 H   0  0  0  0  0
    7.5561    5.6130    8.3160 H   0  0  0  0  0
    3.8842    1.3555   10.1519 H   0  0  0  0  0
    3.0328    2.0703   12.8786 H   0  0  0  0  0
    1.1056    0.6289   12.8897 H   0  0  0  0  0
    1.4423    0.0638   11.2182 H   0  0  0  0  0
    0.6620    3.0117   13.1531 H   0  0  0  0  0
   -0.1589    3.8443   11.8752 H   0  0  0  0  0
    4.5225    1.4078   13.8269 H   0  0  0  0  0
    5.9123   -1.1725   13.4731 H   0  0  0  0  0
    7.5698    0.0585   15.0177 H   0  0  0  0  0
    6.5191    1.5008   14.8120 H   0  0  0  0  0
    7.6947   -1.3232   12.5855 H   0  0  0  0  0
    7.3312    2.9071   13.0376 H   0  0  0  0  0
    8.5897   -0.9805   10.3316 H   0  0  0  0  0
    8.3794    3.2790   10.8442 H   0  0  0  0  0
    8.8957    1.3114    9.4420 H   0  0  0  0  0
    4.2843   -3.0589   17.3221 H   0  0  0  0  0
    2.3147   -4.5096   17.5702 H   0  0  0  0  0
    3.6189   -5.7002   17.2417 H   0  0  0  0  0
    2.9815   -5.9910   15.0315 H   0  0  0  0  0
    1.3803   -5.5520   15.7170 H   0  0  0  0  0
    2.9867   -4.0575   13.7752 H   0  0  0  0  0
    1.3665   -3.6400   14.4288 H   0  0  0  0  0
    5.8178   -4.5520   17.7079 H   0  0  0  0  0
    7.6039   -5.5260   15.6399 H   0  0  0  0  0
    8.8036   -4.6202   18.2444 H   0  0  0  0  0
   10.4158   -3.3499   16.8798 H   0  0  0  0  0
    8.7793   -2.6462   17.1104 H   0  0  0  0  0
    9.5739   -6.8274   17.4576 H   0  0  0  0  0
   10.8880   -5.6345   17.1810 H   0  0  0  0  0
    9.8717   -6.1859   15.8064 H   0  0  0  0  0
    9.8846   -3.8343   14.5470 H   0  0  0  0  0
    9.6859   -2.0925   14.9385 H   0  0  0  0  0
    8.2407   -3.1466   14.7742 H   0  0  0  0  0
    7.6458   -7.7223   16.0268 H   0  0  0  0  0
    7.0091   -8.6419   18.8041 H   0  0  0  0  0
    5.0856   -8.2088   16.7748 H   0  0  0  0  0
    5.6847  -10.2343   15.6574 H   0  0  0  0  0
    4.0664  -10.4052   16.4181 H   0  0  0  0  0
    5.5010  -11.1760   17.1760 H   0  0  0  0  0
    4.9651   -9.6339   19.4365 H   0  0  0  0  0
    3.5610   -8.9739   18.5313 H   0  0  0  0  0
    4.8449   -7.8684   19.1279 H   0  0  0  0  0
    2.2535    8.2890    5.2856 H   0  0  0  0  0
    1.8955    7.7855    3.5989 H   0  0  0  0  0
    3.4975    7.4199    4.3246 H   0  0  0  0  0
    5.7271   -1.8676   15.7619 H   0  0  0  0  0
    4.5140   -0.4111   17.1913 H   0  0  0  0  0
    3.7462   -1.9337   13.9407 H   0  0  0  0  0
    2.9356   -0.9155   15.1787 H   0  0  0  0  0
    9.6845  -11.0239   20.2753 H   0  0  0  0  0
    9.0514   -9.3709   19.9701 H   0  0  0  0  0
   10.3093  -10.0643   18.8914 H   0  0  0  0  0
    2.2769   -2.6303   16.2121 H   0  0  0  0  0
  1  2  2  0  0  0
  1  3  1  0  0  0
  5  4  1  0  0  0
  5  8  1  0  0  0
  6  5  1  0  0  0
  6  7  2  0  0  0
  8  9  1  0  0  0
  4  1  1  0  0  0
 11 10  1  0  0  0
 11 14  1  0  0  0
 12 11  1  0  0  0
 12 13  2  0  0  0
 14 15  1  0  0  0
 15 16  1  0  0  0
 15 17  1  0  0  0
 10  6  1  0  0  0
 19 18  1  0  0  0
 19 22  1  0  0  0
 20 19  1  0  0  0
 20 21  2  0  0  0
 22 23  1  0  0  0
 23 25  1  0  0  0
 23 24  2  0  0  0
 18 12  1  0  0  0
 27 26  1  0  0  0
 27 30  1  0  0  0
 28 27  1  0  0  0
 28 29  1  0  0  0
 30 31  1  0  0  0
 31 32  4  0  0  0
 31 33  4  0  0  0
 33 35  4  0  0  0
 35 36  4  0  0  0
 34 36  4  0  0  0
 32 34  4  0  0  0
 26 20  1  0  0  0
 40 39  1  0  0  0
 39 42  1  0  0  0
 39 38  1  0  0  0
 38 44  1  0  0  0
 44 43  1  0  0  0
 42 43  1  0  0  0
 40 41  2  0  0  0
 46 45  1  0  0  0
 46 49  1  0  0  0
 47 46  1  0  0  0
 47 48  2  0  0  0
 49 51  1  0  0  0
 49 50  1  0  0  0
 50 52  1  0  0  0
 45 40  1  0  0  0
 54 53  1  0  0  0
 54 57  1  0  0  0
 55 54  1  0  0  0
 55 56  2  0  0  0
 57 59  1  0  0  0
 57 58  1  0  0  0
 53 47  1  0  0  0
 37 28  1  0  0  0
 38 37  1  0  0  0
 61 60  1  0  0  0
 61 55  1  0  0  0
  4 62  1  0  0  0
  5 63  1  0  0  0
  8 64  1  0  0  0
  8 65  1  0  0  0
  9 66  1  0  0  0
 10 67  1  0  0  0
 11 68  1  0  0  0
 14 69  1  0  0  0
 14 70  1  0  0  0
 15 71  1  0  0  0
 16 72  1  0  0  0
 16 73  1  0  0  0
 16 74  1  0  0  0
 17 75  1  0  0  0
 17 76  1  0  0  0
 17 77  1  0  0  0
 18 78  1  0  0  0
 19 79  1  0  0  0
 22 80  1  0  0  0
 22 81  1  0  0  0
 25 82  1  0  0  0
 25 83  1  0  0  0
 26 84  1  0  0  0
 27 85  1  0  0  0
 30 86  1  0  0  0
 30 87  1  0  0  0
 32 88  1  0  0  0
 33 89  1  0  0  0
 34 90  1  0  0  0
 35 91  1  0  0  0
 36 92  1  0  0  0
 39 93  1  0  0  0
 42 94  1  0  0  0
 42 95  1  0  0  0
 43 96  1  0  0  0
 43 97  1  0  0  0
 44 98  1  0  0  0
 44 99  1  0  0  0
 45100  1  0  0  0
 46101  1  0  0  0
 49102  1  0  0  0
 50103  1  0  0  0
 50104  1  0  0  0
 51105  1  0  0  0
 51106  1  0  0  0
 51107  1  0  0  0
 52108  1  0  0  0
 52109  1  0  0  0
 52110  1  0  0  0
 53111  1  0  0  0
 54112  1  0  0  0
 57113  1  0  0  0
 58114  1  0  0  0
 58115  1  0  0  0
 58116  1  0  0  0
 59117  1  0  0  0
 59118  1  0  0  0
 59119  1  0  0  0
  3120  1  0  0  0
  3121  1  0  0  0
  3122  1  0  0  0
 28123  1  0  0  0
 29124  1  0  0  0
 37125  1  0  0  0
 37126  1  0  0  0
 60127  1  0  0  0
 60128  1  0  0  0
 60129  1  0  0  0
 38130  1  0  0  0
M  END
$$$$
