### 
### Created by X-TOOL on Tue Oct 25 00:09:17 2005
### 

@<TRIPOS>MOLECULE
1h1d_ligand
   51    53     1     0     0
SMALL
GAST_HUCK


@<TRIPOS>ATOM
      1 N2        -32.1310   57.6560   52.8040 N.pl3     1 SUB1       -0.301
      2 C3        -25.7800   61.5100   51.0180 C.ar      1 SUB1        0.156
      3 C4        -34.1880   57.8240   51.3290 C.ar      1 SUB1       -0.014
      4 O5        -22.7390   62.1550   48.9900 O.3       1 SUB1       -0.174
      5 C6        -26.7980   59.4820   52.0300 C.2       1 SUB1        0.208
      6 C7        -24.7050   62.2170   50.2160 C.ar      1 SUB1        0.381
      7 O8        -27.5510   60.1980   52.6860 O.2       1 SUB1       -0.331
      8 O9        -24.7790   63.5510   50.0460 O.3       1 SUB1       -0.182
      9 C10       -35.5750   57.6480   51.1830 C.ar      1 SUB1       -0.042
     10 C11       -25.7260   60.1160   51.2150 C.ar      1 SUB1        0.169
     11 C12       -30.1400   56.8350   53.9690 C.3       1 SUB1        0.019
     12 N14       -22.5790   59.1460   49.3440 N.2       1 SUB1       -0.185
     13 C16       -29.9440   58.3190   51.9970 C.3       1 SUB1        0.019
     14 O17       -21.6640   59.6500   48.6720 O.2       1 SUB1       -0.488
     15 O18       -22.6150   57.9540   49.5540 O.2       1 SUB1       -0.488
     16 C19       -24.6590   59.3740   50.6480 C.ar      1 SUB1        0.116
     17 C21       -31.3390   57.9780   51.5870 C.3       1 SUB1        0.040
     18 C22       -26.9460   57.9630   52.0600 C.3       1 SUB1        0.050
     19 N23       -29.2900   57.1890   52.7910 N.3       1 SUB1       -0.296
     20 C24       -35.7170   56.8410   53.4710 C.ar      1 SUB1        0.035
     21 C25       -31.5190   56.4950   53.5130 C.3       1 SUB1        0.040
     22 C26       -34.3520   57.0130   53.6240 C.ar      1 SUB1       -0.015
     23 C27       -27.8900   57.5760   53.1910 C.3       1 SUB1        0.015
     24 C28       -23.6500   60.0230   49.8960 C.ar      1 SUB1        0.283
     25 C31       -33.5290   57.5030   52.5800 C.ar      1 SUB1        0.070
     26 C32       -23.6520   61.4490   49.6740 C.ar      1 SUB1        0.407
     27 C33       -36.4840   56.3070   54.6600 C.3       1 SUB1        0.373
     28 F37       -37.3670   55.4090   54.1720 F         1 SUB1       -0.221
     29 F38       -35.7480   55.6470   55.4770 F         1 SUB1       -0.221
     30 F39       -37.1270   57.2500   55.1660 F         1 SUB1       -0.221
     31 C37       -36.3660   57.1530   52.2470 C.ar      1 SUB1       -0.043
     32 H21       -26.5969   62.0818   51.4433 H         1 SUB1        0.108
     33 H31       -33.6051   58.2037   50.4977 H         1 SUB1        0.077
     34 H41       -23.1615   62.5959   48.2622 H         1 SUB1        0.355
     35 H81       -24.0400   63.8443   49.5260 H         1 SUB1        0.350
     36 H91       -36.0469   57.8957   50.2391 H         1 SUB1        0.067
     37 H111      -30.1840   57.6912   54.6581 H         1 SUB1        0.045
     38 H112      -29.7030   55.9690   54.4876 H         1 SUB1        0.045
     39 H131      -29.9683   59.2243   52.6214 H         1 SUB1        0.045
     40 H132      -29.3454   58.5119   51.0946 H         1 SUB1        0.045
     41 H161      -24.6154   58.3004   50.7915 H         1 SUB1        0.157
     42 H171      -31.7916   58.8354   51.0674 H         1 SUB1        0.053
     43 H172      -31.3243   57.1077   50.9144 H         1 SUB1        0.053
     44 H181      -25.9621   57.5003   52.2270 H         1 SUB1        0.051
     45 H182      -27.3574   57.6140   51.1014 H         1 SUB1        0.051
     46 H211      -31.4731   55.6350   52.8286 H         1 SUB1        0.053
     47 H212      -32.1363   56.2364   54.3859 H         1 SUB1        0.053
     48 H221      -33.8969   56.7641   54.5758 H         1 SUB1        0.073
     49 H231      -27.9625   58.4343   53.8752 H         1 SUB1        0.045
     50 H232      -27.4448   56.7211   53.7210 H         1 SUB1        0.045
     51 H311      -37.4351   57.0161   52.1312 H         1 SUB1        0.076
@<TRIPOS>BOND
     1    1   17 1  
     2    1   21 1  
     3   25    1 1  
     4    2    6 ar 
     5   10    2 ar 
     6    9    3 ar 
     7    3   25 ar 
     8   26    4 1  
     9    5    7 2  
    10    5   10 1  
    11   18    5 1  
    12    6    8 1  
    13    6   26 ar 
    14   31    9 ar 
    15   10   16 ar 
    16   11   19 1  
    17   21   11 1  
    18   12   14 2  
    19   12   15 2  
    20   24   12 1  
    21   17   13 1  
    22   13   19 1  
    23   16   24 ar 
    24   23   18 1  
    25   19   23 1  
    26   20   22 ar 
    27   20   27 1  
    28   20   31 ar 
    29   22   25 ar 
    30   24   26 ar 
    31   27   28 1  
    32   27   29 1  
    33   27   30 1  
    34    2   32 1  
    35    3   33 1  
    36    4   34 1  
    37    8   35 1  
    38    9   36 1  
    39   11   37 1  
    40   11   38 1  
    41   13   39 1  
    42   13   40 1  
    43   16   41 1  
    44   17   42 1  
    45   17   43 1  
    46   18   44 1  
    47   18   45 1  
    48   21   46 1  
    49   21   47 1  
    50   22   48 1  
    51   23   49 1  
    52   23   50 1  
    53   31   51 1  
@<TRIPOS>SUBSTRUCTURE
     1 SUB1        1 GROUP

