1os0_ligand
  -I-interpret- 

 65 67  0  0  0  0  0  0  0  0999 V2000
   34.1120   41.4110   -8.4770 N   0  3  0  0  0
   34.4460   40.9520   -7.1100 C   0  0  0  0  0
   35.2700   42.1920   -6.2520 P   0  0  0  0  0
   36.5490   42.7120   -6.8370 O   0  5  0  0  0
   34.3890   43.3580   -6.0400 O   0  0  0  0  0
   34.9630   39.6030   -7.3900 C   0  0  0  0  0
   33.9010   38.6470   -7.9230 C   0  0  0  0  0
   32.8690   38.2590   -7.0560 C   0  0  0  0  0
   33.9710   38.1450   -9.2050 C   0  0  0  0  0
   31.9280   37.3710   -7.5860 C   0  0  0  0  0
   33.0310   37.3340   -9.6820 C   0  0  0  0  0
   31.9820   36.9090   -8.8930 C   0  0  0  0  0
   35.5860   41.3130   -4.7610 C   0  0  0  0  0
   36.6000   41.9580   -3.7960 C   0  0  0  0  0
   35.9200   42.2140   -2.4400 C   0  0  0  0  0
   36.7600   42.9290   -1.4050 C   0  0  0  0  0
   37.0960   44.2660   -1.5520 C   0  0  0  0  0
   37.1800   42.2470   -0.2750 C   0  0  0  0  0
   37.8690   44.9200   -0.6130 C   0  0  0  0  0
   37.9770   42.8840    0.6550 C   0  0  0  0  0
   38.3040   44.2210    0.4970 C   0  0  0  0  0
   37.9170   41.1920   -3.6180 C   0  0  0  0  0
   39.0200   41.7290   -3.6600 O   0  0  0  0  0
   37.7720   39.9080   -3.3910 N   0  0  0  0  0
   38.7000   38.8110   -3.2120 C   0  0  0  0  0
   38.7800   38.0540   -4.5400 C   0  0  0  0  0
   37.7130   37.7660   -5.1130 O   0  5  0  0  0
   38.1700   37.9510   -2.0990 C   0  0  0  0  0
   38.7970   36.6970   -1.5860 C   0  0  0  0  0
   40.0650   36.6930   -1.0410 C   0  0  0  0  0
   38.0990   35.4960   -1.6280 C   0  0  0  0  0
   40.6570   35.5480   -0.5380 C   0  0  0  0  0
   38.6740   34.3400   -1.1360 C   0  0  0  0  0
   39.9470   34.3610   -0.5880 C   0  0  0  0  0
   39.8870   37.7690   -4.9900 O   0  0  0  0  0
   39.7028   39.1828   -2.9548 H   0  0  0  0  0
   38.1070   38.6095   -1.2202 H   0  0  0  0  0
   37.1519   37.6694   -2.4056 H   0  0  0  0  0
   40.6192   37.6240   -1.0056 H   0  0  0  0  0
   37.1002   35.4661   -2.0481 H   0  0  0  0  0
   41.6543   35.5799   -0.1144 H   0  0  0  0  0
   38.1239   33.4070   -1.1790 H   0  0  0  0  0
   40.3858   33.4492   -0.1992 H   0  0  0  0  0
   33.6301   40.6710   -8.9631 H   0  0  0  0  0
   33.5113   42.2191   -8.4311 H   0  0  0  0  0
   34.9560   41.6383   -8.9791 H   0  0  0  0  0
   33.5191   40.7907   -6.5402 H   0  0  0  0  0
   36.7955   39.6207   -3.3268 H   0  0  0  0  0
   35.7602   39.6773   -8.1442 H   0  0  0  0  0
   35.3656   39.1763   -6.4595 H   0  0  0  0  0
   32.8049   38.6251   -6.0377 H   0  0  0  0  0
   34.8089   38.4167   -9.8369 H   0  0  0  0  0
   31.1213   37.0287   -6.9480 H   0  0  0  0  0
   33.0902   37.0001  -10.7116 H   0  0  0  0  0
   31.2255   36.2367   -9.2813 H   0  0  0  0  0
   34.6366   41.2113   -4.2150 H   0  0  0  0  0
   35.9752   40.3186   -5.0249 H   0  0  0  0  0
   36.8794   42.9319   -4.2241 H   0  0  0  0  0
   35.0246   42.8285   -2.6148 H   0  0  0  0  0
   35.6308   41.2431   -2.0115 H   0  0  0  0  0
   36.7447   44.8091   -2.4219 H   0  0  0  0  0
   36.8837   41.2157   -0.1213 H   0  0  0  0  0
   38.1301   45.9639   -0.7443 H   0  0  0  0  0
   38.3487   42.3355    1.5129 H   0  0  0  0  0
   38.9043   44.7215    1.2481 H   0  0  0  0  0
 24 25  1  0  0  0
 25 28  1  0  0  0
 25 26  1  0  0  0
 26 27  1  0  0  0
 26 35  2  0  0  0
 28 29  1  0  0  0
 29 30  4  0  0  0
 29 31  4  0  0  0
 31 33  4  0  0  0
 33 34  4  0  0  0
 32 34  4  0  0  0
 30 32  4  0  0  0
  2  1  1  0  0  0
  3  2  1  0  0  0
  2  6  1  0  0  0
  3  4  1  0  0  0
  3  5  2  0  0  0
 13  3  1  0  0  0
  6  7  1  0  0  0
  7  8  4  0  0  0
  7  9  4  0  0  0
  8 10  4  0  0  0
  9 11  4  0  0  0
 10 12  4  0  0  0
 11 12  4  0  0  0
 14 13  1  0  0  0
 14 15  1  0  0  0
 22 14  1  0  0  0
 15 16  1  0  0  0
 16 17  4  0  0  0
 16 18  4  0  0  0
 17 19  4  0  0  0
 18 20  4  0  0  0
 19 21  4  0  0  0
 20 21  4  0  0  0
 22 23  2  0  0  0
 22 24  1  0  0  0
 24 48  1  0  0  0
 25 36  1  0  0  0
 28 37  1  0  0  0
 28 38  1  0  0  0
 30 39  1  0  0  0
 31 40  1  0  0  0
 32 41  1  0  0  0
 33 42  1  0  0  0
 34 43  1  0  0  0
  1 44  1  0  0  0
  1 45  1  0  0  0
  1 46  1  0  0  0
  2 47  1  0  0  0
  6 49  1  0  0  0
  6 50  1  0  0  0
  8 51  1  0  0  0
  9 52  1  0  0  0
 10 53  1  0  0  0
 11 54  1  0  0  0
 12 55  1  0  0  0
 13 56  1  0  0  0
 13 57  1  0  0  0
 14 58  1  0  0  0
 15 59  1  0  0  0
 15 60  1  0  0  0
 17 61  1  0  0  0
 18 62  1  0  0  0
 19 63  1  0  0  0
 20 64  1  0  0  0
 21 65  1  0  0  0
M  END
$$$$
