### 
### Created by X-TOOL on Tue Oct 25 00:58:59 2005
### 

@<TRIPOS>MOLECULE
1os0_ligand
   65    67     1     0     0
SMALL
GAST_HUCK


@<TRIPOS>ATOM
      1 N          34.1120   41.4110   -8.4770 N.4       1 SUB1        0.226
      2 CA         34.4460   40.9520   -7.1100 C.3       1 SUB1        0.020
      3 P          35.2700   42.1920   -6.2520 P.3       1 SUB1        0.052
      4 O1P        36.5490   42.7120   -6.8370 O.co2     1 SUB1       -0.550
      5 O2P        34.3890   43.3580   -6.0400 O.co2     1 SUB1       -0.550
      6 CB         34.9630   39.6030   -7.3900 C.3       1 SUB1        0.029
      7 CG         33.9010   38.6470   -7.9230 C.ar      1 SUB1       -0.037
      8 CD1        32.8690   38.2590   -7.0560 C.ar      1 SUB1       -0.060
      9 CD2        33.9710   38.1450   -9.2050 C.ar      1 SUB1       -0.060
     10 CE1        31.9280   37.3710   -7.5860 C.ar      1 SUB1       -0.069
     11 CE2        33.0310   37.3340   -9.6820 C.ar      1 SUB1       -0.069
     12 CZ         31.9820   36.9090   -8.8930 C.ar      1 SUB1       -0.069
     13 CM         35.5860   41.3130   -4.7610 C.3       1 SUB1        0.010
     14 CA         36.6000   41.9580   -3.7960 C.3       1 SUB1        0.064
     15 CB         35.9200   42.2140   -2.4400 C.3       1 SUB1        0.001
     16 CG         36.7600   42.9290   -1.4050 C.ar      1 SUB1       -0.041
     17 CD1        37.0960   44.2660   -1.5520 C.ar      1 SUB1       -0.060
     18 CD2        37.1800   42.2470   -0.2750 C.ar      1 SUB1       -0.060
     19 CE1        37.8690   44.9200   -0.6130 C.ar      1 SUB1       -0.069
     20 CE2        37.9770   42.8840    0.6550 C.ar      1 SUB1       -0.069
     21 CZ         38.3040   44.2210    0.4970 C.ar      1 SUB1       -0.069
     22 C          37.9170   41.1920   -3.6180 C.2       1 SUB1        0.185
     23 O          39.0200   41.7290   -3.6600 O.2       1 SUB1       -0.396
     24 N          37.7720   39.9080   -3.3910 N.am      1 SUB1       -0.268
     25 CA         38.7000   38.8110   -3.2120 C.3       1 SUB1        0.091
     26 C          38.7800   38.0540   -4.5400 C.2       1 SUB1        0.055
     27 O          37.7130   37.7660   -5.1130 O.co2     1 SUB1       -0.564
     28 CB         38.1700   37.9510   -2.0990 C.3       1 SUB1        0.015
     29 CG         38.7970   36.6970   -1.5860 C.ar      1 SUB1       -0.038
     30 CD1        40.0650   36.6930   -1.0410 C.ar      1 SUB1       -0.060
     31 CD2        38.0990   35.4960   -1.6280 C.ar      1 SUB1       -0.060
     32 CE1        40.6570   35.5480   -0.5380 C.ar      1 SUB1       -0.069
     33 CE2        38.6740   34.3400   -1.1360 C.ar      1 SUB1       -0.069
     34 CZ         39.9470   34.3610   -0.5880 C.ar      1 SUB1       -0.069
     35 OXT        39.8870   37.7690   -4.9900 O.co2     1 SUB1       -0.564
     36 H251       39.7028   39.1828   -2.9548 H         1 SUB1        0.080
     37 H281       38.1070   38.6095   -1.2202 H         1 SUB1        0.049
     38 H282       37.1519   37.6694   -2.4056 H         1 SUB1        0.049
     39 H301       40.6192   37.6240   -1.0056 H         1 SUB1        0.056
     40 H311       37.1002   35.4661   -2.0481 H         1 SUB1        0.056
     41 H321       41.6543   35.5799   -0.1144 H         1 SUB1        0.060
     42 H331       38.1239   33.4070   -1.1790 H         1 SUB1        0.060
     43 H341       40.3858   33.4492   -0.1992 H         1 SUB1        0.056
     44 H11        33.6301   40.6710   -8.9631 H         1 SUB1        0.200
     45 H12        33.5113   42.2191   -8.4311 H         1 SUB1        0.200
     46 H13        34.9560   41.6383   -8.9791 H         1 SUB1        0.200
     47 H21        33.5191   40.7907   -6.5402 H         1 SUB1        0.094
     48 H241       36.7955   39.6207   -3.3268 H         1 SUB1        0.190
     49 H61        35.7602   39.6773   -8.1442 H         1 SUB1        0.049
     50 H62        35.3656   39.1763   -6.4595 H         1 SUB1        0.049
     51 H81        32.8049   38.6251   -6.0377 H         1 SUB1        0.056
     52 H91        34.8089   38.4167   -9.8369 H         1 SUB1        0.056
     53 H101       31.1213   37.0287   -6.9480 H         1 SUB1        0.060
     54 H111       33.0902   37.0001  -10.7116 H         1 SUB1        0.060
     55 H121       31.2255   36.2367   -9.2813 H         1 SUB1        0.056
     56 H131       34.6366   41.2113   -4.2150 H         1 SUB1        0.036
     57 H132       35.9752   40.3186   -5.0249 H         1 SUB1        0.036
     58 H141       36.8794   42.9319   -4.2241 H         1 SUB1        0.056
     59 H151       35.0246   42.8285   -2.6148 H         1 SUB1        0.045
     60 H152       35.6308   41.2431   -2.0115 H         1 SUB1        0.045
     61 H171       36.7447   44.8091   -2.4219 H         1 SUB1        0.056
     62 H181       36.8837   41.2157   -0.1213 H         1 SUB1        0.056
     63 H191       38.1301   45.9639   -0.7443 H         1 SUB1        0.060
     64 H201       38.3487   42.3355    1.5129 H         1 SUB1        0.060
     65 H211       38.9043   44.7215    1.2481 H         1 SUB1        0.056
@<TRIPOS>BOND
     1   24   25 1  
     2   25   28 1  
     3   25   26 1  
     4   26   27 2  
     5   26   35 2  
     6   28   29 1  
     7   29   30 ar 
     8   29   31 ar 
     9   31   33 ar 
    10   33   34 ar 
    11   32   34 ar 
    12   30   32 ar 
    13    2    1 1  
    14    3    2 1  
    15    2    6 1  
    16    3    4 2  
    17    3    5 2  
    18   13    3 1  
    19    6    7 1  
    20    7    8 ar 
    21    7    9 ar 
    22    8   10 ar 
    23    9   11 ar 
    24   10   12 ar 
    25   11   12 ar 
    26   14   13 1  
    27   14   15 1  
    28   22   14 1  
    29   15   16 1  
    30   16   17 ar 
    31   16   18 ar 
    32   17   19 ar 
    33   18   20 ar 
    34   19   21 ar 
    35   20   21 ar 
    36   22   23 2  
    37   22   24 am 
    38   24   48 1  
    39   25   36 1  
    40   28   37 1  
    41   28   38 1  
    42   30   39 1  
    43   31   40 1  
    44   32   41 1  
    45   33   42 1  
    46   34   43 1  
    47    1   44 1  
    48    1   45 1  
    49    1   46 1  
    50    2   47 1  
    51    6   49 1  
    52    6   50 1  
    53    8   51 1  
    54    9   52 1  
    55   10   53 1  
    56   11   54 1  
    57   12   55 1  
    58   13   56 1  
    59   13   57 1  
    60   14   58 1  
    61   15   59 1  
    62   15   60 1  
    63   17   61 1  
    64   18   62 1  
    65   19   63 1  
    66   20   64 1  
    67   21   65 1  
@<TRIPOS>SUBSTRUCTURE
     1 SUB1        1 GROUP

