1mrx_ligand
  -I-interpret- 

 74 76  0  0  0  0  0  0  0  0999 V2000
   10.8540   17.8030   18.9150 C   0  0  0  0  0
   10.8460   18.4860   17.6850 C   0  0  0  0  0
   11.9030   19.3690   17.3700 C   0  0  0  0  0
   12.9890   19.5810   18.2850 C   0  0  0  0  0
   12.9970   18.8820   19.5480 C   0  0  0  0  0
   11.9130   17.9960   19.8320 C   0  0  0  0  0
   14.1020   19.0350   20.5900 C   0  0  0  0  0
   14.0800   20.5240   17.8970 C   0  0  0  0  0
   13.7210   21.7790   17.5260 N   0  0  0  0  0
   14.6400   22.8260   17.0820 C   0  0  0  0  0
   14.3450   23.5460   15.7420 C   0  0  0  0  0
   14.7910   24.0120   18.0640 C   0  0  0  0  0
   16.1510   24.7410   18.2180 C   0  0  0  0  0
   17.2660   24.0940   18.7350 N   0  0  0  0  0
   18.5740   24.7910   18.6420 C   0  0  0  0  0
   19.5090   24.1940   19.7340 C   0  0  0  0  0
   19.0750   22.4510   19.8340 S   0  0  0  0  0
   17.3560   22.7620   19.3800 C   0  0  0  0  0
   14.1540   22.5370   14.6290 C   0  0  0  0  0
   15.2790   22.3390   13.7900 C   0  0  0  0  0
   15.2400   21.4220   12.7100 C   0  0  0  0  0
   14.0490   20.6920   12.4740 C   0  0  0  0  0
   12.9140   20.8770   13.3040 C   0  0  0  0  0
   12.9640   21.8000   14.3820 C   0  0  0  0  0
   13.6730   24.4750   18.7440 O   0  0  0  0  0
   16.1730   25.8630   17.7130 O   0  0  0  0  0
   19.2230   24.8250   21.1090 C   0  0  0  0  0
   21.0220   24.3140   19.4160 C   0  0  0  0  0
   19.0320   24.6000   17.1560 C   0  0  0  0  0
   19.5710   25.7230   16.5970 N   0  0  0  0  0
   20.0920   25.8960   15.2210 C   0  0  0  0  0
   18.8890   23.5170   16.5900 O   0  0  0  0  0
   11.8860   17.3100   21.0240 O   0  0  0  0  0
   15.2680   20.1750   17.8920 O   0  0  0  0  0
   20.5710   27.3550   15.1520 C   0  0  0  0  0
   18.9750   25.6600   14.1830 C   0  0  0  0  0
   21.2910   24.9600   14.9330 C   0  0  0  0  0
   10.0444   17.1255   19.1609 H   0  0  0  0  0
   10.0337   18.3356   16.9832 H   0  0  0  0  0
   11.8939   19.8949   16.4222 H   0  0  0  0  0
   14.8513   19.7479   20.2154 H   0  0  0  0  0
   13.6803   19.4197   21.5302 H   0  0  0  0  0
   14.5881   18.0642   20.7665 H   0  0  0  0  0
   12.7478   22.0065   17.5590 H   0  0  0  0  0
   15.6223   22.3389   16.9945 H   0  0  0  0  0
   13.4251   24.1413   15.8383 H   0  0  0  0  0
   15.1898   24.2006   15.4817 H   0  0  0  0  0
   15.0313   23.3321   18.8946 H   0  0  0  0  0
   18.4590   25.8691   18.8273 H   0  0  0  0  0
   16.7354   22.7411   20.2879 H   0  0  0  0  0
   17.0227   21.9818   18.6799 H   0  0  0  0  0
   16.1873   22.9000   13.9780 H   0  0  0  0  0
   16.1072   21.2815   12.0750 H   0  0  0  0  0
   14.0049   19.9863   11.6523 H   0  0  0  0  0
   12.0075   20.3133   13.1153 H   0  0  0  0  0
   12.0960   21.9423   15.0155 H   0  0  0  0  0
   12.9286   23.9206   18.5417 H   0  0  0  0  0
   19.8995   24.3813   21.8543 H   0  0  0  0  0
   19.3981   25.9101   21.0675 H   0  0  0  0  0
   18.1828   24.6240   21.4049 H   0  0  0  0  0
   21.5977   23.8674   20.2401 H   0  0  0  0  0
   21.2534   23.7761   18.4848 H   0  0  0  0  0
   21.3016   25.3732   19.3167 H   0  0  0  0  0
   19.6201   26.5274   17.1890 H   0  0  0  0  0
   11.1066   16.7680   21.0586 H   0  0  0  0  0
   20.9736   27.5526   14.1476 H   0  0  0  0  0
   19.7279   28.0359   15.3403 H   0  0  0  0  0
   21.3637   27.5251   15.8954 H   0  0  0  0  0
   19.3901   25.7949   13.1733 H   0  0  0  0  0
   18.5865   24.6352   14.2765 H   0  0  0  0  0
   18.1618   26.3848   14.3357 H   0  0  0  0  0
   21.6374   25.1285   13.9027 H   0  0  0  0  0
   22.1144   25.1804   15.6283 H   0  0  0  0  0
   20.9812   23.9100   15.0394 H   0  0  0  0  0
  1  2  4  0  0  0
  1  6  4  0  0  0
  2  3  4  0  0  0
  3  4  4  0  0  0
  4  5  4  0  0  0
  4  8  1  0  0  0
  5  6  4  0  0  0
  5  7  1  0  0  0
  6 33  1  0  0  0
  8  9  1  0  0  0
  8 34  2  0  0  0
  9 10  1  0  0  0
 10 11  1  0  0  0
 10 12  1  0  0  0
 11 19  1  0  0  0
 12 13  1  0  0  0
 12 25  1  0  0  0
 13 14  1  0  0  0
 13 26  2  0  0  0
 14 15  1  0  0  0
 14 18  1  0  0  0
 15 16  1  0  0  0
 15 29  1  0  0  0
 16 17  1  0  0  0
 16 27  1  0  0  0
 16 28  1  0  0  0
 17 18  1  0  0  0
 19 20  4  0  0  0
 19 24  4  0  0  0
 20 21  4  0  0  0
 21 22  4  0  0  0
 22 23  4  0  0  0
 23 24  4  0  0  0
 29 30  1  0  0  0
 29 32  2  0  0  0
 30 31  1  0  0  0
 31 35  1  0  0  0
 31 36  1  0  0  0
 31 37  1  0  0  0
  1 38  1  0  0  0
  2 39  1  0  0  0
  3 40  1  0  0  0
  7 41  1  0  0  0
  7 42  1  0  0  0
  7 43  1  0  0  0
  9 44  1  0  0  0
 10 45  1  0  0  0
 11 46  1  0  0  0
 11 47  1  0  0  0
 12 48  1  0  0  0
 15 49  1  0  0  0
 18 50  1  0  0  0
 18 51  1  0  0  0
 20 52  1  0  0  0
 21 53  1  0  0  0
 22 54  1  0  0  0
 23 55  1  0  0  0
 24 56  1  0  0  0
 25 57  1  0  0  0
 27 58  1  0  0  0
 27 59  1  0  0  0
 27 60  1  0  0  0
 28 61  1  0  0  0
 28 62  1  0  0  0
 28 63  1  0  0  0
 30 64  1  0  0  0
 33 65  1  0  0  0
 35 66  1  0  0  0
 35 67  1  0  0  0
 35 68  1  0  0  0
 36 69  1  0  0  0
 36 70  1  0  0  0
 36 71  1  0  0  0
 37 72  1  0  0  0
 37 73  1  0  0  0
 37 74  1  0  0  0
M  END
$$$$
