### 
### Created by X-TOOL on Tue Oct 25 00:06:45 2005
### 

@<TRIPOS>MOLECULE
1mrx_ligand
   74    76     1     0     0
SMALL
GAST_HUCK


@<TRIPOS>ATOM
      1 C1         10.8540   17.8030   18.9150 C.ar      1 SUB1       -0.036
      2 C2         10.8460   18.4860   17.6850 C.ar      1 SUB1       -0.072
      3 C3         11.9030   19.3690   17.3700 C.ar      1 SUB1       -0.060
      4 C4         12.9890   19.5810   18.2850 C.ar      1 SUB1        0.043
      5 C5         12.9970   18.8820   19.5480 C.ar      1 SUB1        0.004
      6 C6         11.9130   17.9960   19.8320 C.ar      1 SUB1        0.095
      7 C7         14.1020   19.0350   20.5900 C.3       1 SUB1       -0.029
      8 C8         14.0800   20.5240   17.8970 C.2       1 SUB1        0.198
      9 N9         13.7210   21.7790   17.5260 N.am      1 SUB1       -0.278
     10 C10        14.6400   22.8260   17.0820 C.3       1 SUB1        0.094
     11 C11        14.3450   23.5460   15.7420 C.3       1 SUB1        0.009
     12 C12        14.7910   24.0120   18.0640 C.3       1 SUB1        0.168
     13 C13        16.1510   24.7410   18.2180 C.2       1 SUB1        0.213
     14 N14        17.2660   24.0940   18.7350 N.am      1 SUB1       -0.238
     15 C15        18.5740   24.7910   18.6420 C.3       1 SUB1        0.148
     16 C16        19.5090   24.1940   19.7340 C.3       1 SUB1        0.053
     17 S17        19.0750   22.4510   19.8340 S.3       1 SUB1       -0.125
     18 C18        17.3560   22.7620   19.3800 C.3       1 SUB1        0.083
     19 C19        14.1540   22.5370   14.6290 C.ar      1 SUB1       -0.041
     20 C20        15.2790   22.3390   13.7900 C.ar      1 SUB1       -0.060
     21 C21        15.2400   21.4220   12.7100 C.ar      1 SUB1       -0.069
     22 C22        14.0490   20.6920   12.4740 C.ar      1 SUB1       -0.069
     23 C23        12.9140   20.8770   13.3040 C.ar      1 SUB1       -0.069
     24 C24        12.9640   21.8000   14.3820 C.ar      1 SUB1       -0.060
     25 O25        13.6730   24.4750   18.7440 O.3       1 SUB1       -0.369
     26 O26        16.1730   25.8630   17.7130 O.2       1 SUB1       -0.394
     27 C27        19.2230   24.8250   21.1090 C.3       1 SUB1       -0.046
     28 C28        21.0220   24.3140   19.4160 C.3       1 SUB1       -0.046
     29 C29        19.0320   24.6000   17.1560 C.2       1 SUB1        0.204
     30 N30        19.5710   25.7230   16.5970 N.am      1 SUB1       -0.280
     31 C31        20.0920   25.8960   15.2210 C.3       1 SUB1        0.045
     32 O32        18.8890   23.5170   16.5900 O.2       1 SUB1       -0.394
     33 O33        11.8860   17.3100   21.0240 O.3       1 SUB1       -0.336
     34 O34        15.2680   20.1750   17.8920 O.2       1 SUB1       -0.389
     35 C35        20.5710   27.3550   15.1520 C.3       1 SUB1       -0.040
     36 C67        18.9750   25.6600   14.1830 C.3       1 SUB1       -0.040
     37 C71        21.2910   24.9600   14.9330 C.3       1 SUB1       -0.040
     38 H11        10.0444   17.1255   19.1609 H         1 SUB1        0.056
     39 H21        10.0337   18.3356   16.9832 H         1 SUB1        0.054
     40 H31        11.8939   19.8949   16.4222 H         1 SUB1        0.056
     41 H71        14.8513   19.7479   20.2154 H         1 SUB1        0.038
     42 H72        13.6803   19.4197   21.5302 H         1 SUB1        0.038
     43 H73        14.5881   18.0642   20.7665 H         1 SUB1        0.038
     44 H91        12.7478   22.0065   17.5590 H         1 SUB1        0.185
     45 H101       15.6223   22.3389   16.9945 H         1 SUB1        0.063
     46 H111       13.4251   24.1413   15.8383 H         1 SUB1        0.045
     47 H112       15.1898   24.2006   15.4817 H         1 SUB1        0.045
     48 H121       15.0313   23.3321   18.8946 H         1 SUB1        0.086
     49 H151       18.4590   25.8691   18.8273 H         1 SUB1        0.082
     50 H181       16.7354   22.7411   20.2879 H         1 SUB1        0.064
     51 H182       17.0227   21.9818   18.6799 H         1 SUB1        0.064
     52 H201       16.1873   22.9000   13.9780 H         1 SUB1        0.056
     53 H211       16.1072   21.2815   12.0750 H         1 SUB1        0.060
     54 H221       14.0049   19.9863   11.6523 H         1 SUB1        0.056
     55 H231       12.0075   20.3133   13.1153 H         1 SUB1        0.060
     56 H241       12.0960   21.9423   15.0155 H         1 SUB1        0.056
     57 H251       12.9286   23.9206   18.5417 H         1 SUB1        0.213
     58 H271       19.8995   24.3813   21.8543 H         1 SUB1        0.024
     59 H272       19.3981   25.9101   21.0675 H         1 SUB1        0.024
     60 H273       18.1828   24.6240   21.4049 H         1 SUB1        0.024
     61 H281       21.5977   23.8674   20.2401 H         1 SUB1        0.024
     62 H282       21.2534   23.7761   18.4848 H         1 SUB1        0.024
     63 H283       21.3016   25.3732   19.3167 H         1 SUB1        0.024
     64 H301       19.6201   26.5274   17.1890 H         1 SUB1        0.186
     65 H331       11.1066   16.7680   21.0586 H         1 SUB1        0.246
     66 H351       20.9736   27.5526   14.1476 H         1 SUB1        0.025
     67 H352       19.7279   28.0359   15.3403 H         1 SUB1        0.025
     68 H353       21.3637   27.5251   15.8954 H         1 SUB1        0.025
     69 H361       19.3901   25.7949   13.1733 H         1 SUB1        0.025
     70 H362       18.5865   24.6352   14.2765 H         1 SUB1        0.025
     71 H363       18.1618   26.3848   14.3357 H         1 SUB1        0.025
     72 H371       21.6374   25.1285   13.9027 H         1 SUB1        0.025
     73 H372       22.1144   25.1804   15.6283 H         1 SUB1        0.025
     74 H373       20.9812   23.9100   15.0394 H         1 SUB1        0.025
@<TRIPOS>BOND
     1    1    2 ar 
     2    1    6 ar 
     3    2    3 ar 
     4    3    4 ar 
     5    4    5 ar 
     6    4    8 1  
     7    5    6 ar 
     8    5    7 1  
     9    6   33 1  
    10    8    9 am 
    11    8   34 2  
    12    9   10 1  
    13   10   11 1  
    14   10   12 1  
    15   11   19 1  
    16   12   13 1  
    17   12   25 1  
    18   13   14 am 
    19   13   26 2  
    20   14   15 1  
    21   14   18 1  
    22   15   16 1  
    23   15   29 1  
    24   16   17 1  
    25   16   27 1  
    26   16   28 1  
    27   17   18 1  
    28   19   20 ar 
    29   19   24 ar 
    30   20   21 ar 
    31   21   22 ar 
    32   22   23 ar 
    33   23   24 ar 
    34   29   30 am 
    35   29   32 2  
    36   30   31 1  
    37   31   35 1  
    38   31   36 1  
    39   31   37 1  
    40    1   38 1  
    41    2   39 1  
    42    3   40 1  
    43    7   41 1  
    44    7   42 1  
    45    7   43 1  
    46    9   44 1  
    47   10   45 1  
    48   11   46 1  
    49   11   47 1  
    50   12   48 1  
    51   15   49 1  
    52   18   50 1  
    53   18   51 1  
    54   20   52 1  
    55   21   53 1  
    56   22   54 1  
    57   23   55 1  
    58   24   56 1  
    59   25   57 1  
    60   27   58 1  
    61   27   59 1  
    62   27   60 1  
    63   28   61 1  
    64   28   62 1  
    65   28   63 1  
    66   30   64 1  
    67   33   65 1  
    68   35   66 1  
    69   35   67 1  
    70   35   68 1  
    71   36   69 1  
    72   36   70 1  
    73   36   71 1  
    74   37   72 1  
    75   37   73 1  
    76   37   74 1  
@<TRIPOS>SUBSTRUCTURE
     1 SUB1        1 GROUP

