### 
### Created by X-TOOL on Sun Jun  3 12:43:02 2007
### 

@<TRIPOS>MOLECULE
2h6b_ligand
   18    18     1     0     0
SMALL
GAST_HUCK


@<TRIPOS>ATOM
      1 O2         60.5330   83.3660   11.3130 O.2       1 SUB1       -0.562
      2 C          61.4870   83.2680   12.1480 C.2       1 SUB1        0.065
      3 O1         62.5310   82.5720   11.9040 O.2       1 SUB1       -0.562
      4 CG         61.2990   84.0550   13.4320 C.3       1 SUB1        0.074
      5 CA         62.4180   83.8990   14.4920 C.ar      1 SUB1        0.053
      6 CD2        63.6360   84.4950   14.3050 C.ar      1 SUB1        0.020
      7 CE2        64.6000   84.4000   15.1460 C.ar      1 SUB1        0.055
      8 CZ         64.5040   83.6120   16.3990 C.ar      1 SUB1        0.214
      9 OH         65.5260   83.4780   17.3610 O.3       1 SUB1       -0.257
     10 CL         62.7560   82.0230   17.9910 Cl        1 SUB1       -0.027
     11 CE1        63.1470   82.9630   16.5560 C.ar      1 SUB1        0.160
     12 CD1        62.1830   83.1490   15.6160 C.ar      1 SUB1        0.034
     13 H          60.3858   83.6776   13.8922 H         1 SUB1        0.082
     14 H          61.2899   85.1074   13.1482 H         1 SUB1        0.082
     15 H          63.7944   85.0783   13.3979 H         1 SUB1        0.090
     16 H          65.5321   84.9221   14.9300 H         1 SUB1        0.091
     17 H          65.2179   82.9185   18.0777 H         1 SUB1        0.303
     18 H          61.2033   82.6929   15.7584 H         1 SUB1        0.085
@<TRIPOS>BOND
     1    1    2 2  
     2    2    3 2  
     3    2    4 1  
     4    4    5 1  
     5    5    6 ar 
     6    5   12 ar 
     7    6    7 ar 
     8    7    8 ar 
     9    8    9 1  
    10    8   11 ar 
    11   11   10 1  
    12   11   12 ar 
    13    4   13 1  
    14    4   14 1  
    15    6   15 1  
    16    7   16 1  
    17    9   17 1  
    18   12   18 1  
@<TRIPOS>SUBSTRUCTURE
     1 SUB1        1 GROUP

