2h6b_ligand
  -I-interpret- 

 18 18  0  0  0  0  0  0  0  0999 V2000
   60.5330   83.3660   11.3130 O   0  0  0  0  0
   61.4870   83.2680   12.1480 C   0  0  0  0  0
   62.5310   82.5720   11.9040 O   0  5  0  0  0
   61.2990   84.0550   13.4320 C   0  0  0  0  0
   62.4180   83.8990   14.4920 C   0  0  0  0  0
   63.6360   84.4950   14.3050 C   0  0  0  0  0
   64.6000   84.4000   15.1460 C   0  0  0  0  0
   64.5040   83.6120   16.3990 C   0  0  0  0  0
   65.5260   83.4780   17.3610 O   0  0  0  0  0
   62.7560   82.0230   17.9910 Cl  0  0  0  0  0
   63.1470   82.9630   16.5560 C   0  0  0  0  0
   62.1830   83.1490   15.6160 C   0  0  0  0  0
   60.3858   83.6776   13.8922 H   0  0  0  0  0
   61.2899   85.1074   13.1482 H   0  0  0  0  0
   63.7944   85.0783   13.3979 H   0  0  0  0  0
   65.5321   84.9221   14.9300 H   0  0  0  0  0
   65.2179   82.9185   18.0777 H   0  0  0  0  0
   61.2033   82.6929   15.7584 H   0  0  0  0  0
  1  2  2  0  0  0
  2  3  1  0  0  0
  2  4  1  0  0  0
  4  5  1  0  0  0
  5  6  4  0  0  0
  5 12  4  0  0  0
  6  7  4  0  0  0
  7  8  4  0  0  0
  8  9  1  0  0  0
  8 11  4  0  0  0
 11 10  1  0  0  0
 11 12  4  0  0  0
  4 13  1  0  0  0
  4 14  1  0  0  0
  6 15  1  0  0  0
  7 16  1  0  0  0
  9 17  1  0  0  0
 12 18  1  0  0  0
M  END
$$$$
