### 
### Created by X-TOOL on Tue Oct 25 02:02:52 2005
### 

@<TRIPOS>MOLECULE
1utc_ligand
  127   131     1     0     0
SMALL
GAST_HUCK


@<TRIPOS>ATOM
      1 N          29.2280   60.2100   31.8600 N.4       1 SUB1        0.240
      2 CA         29.7790   60.0600   30.4770 C.3       1 SUB1        0.091
      3 C          29.4610   58.7060   29.8490 C.2       1 SUB1        0.229
      4 O          28.7380   58.6630   28.8400 O.2       1 SUB1       -0.391
      5 CB         31.2730   60.2560   30.5030 C.3       1 SUB1        0.112
      6 OG1        31.5930   61.2320   31.5080 O.3       1 SUB1       -0.384
      7 CG2        31.7710   60.8310   29.1410 C.3       1 SUB1       -0.031
      8 N          29.9930   57.6120   30.4190 N.am      1 SUB1       -0.261
      9 CA         29.5490   56.2770   29.9880 C.3       1 SUB1        0.132
     10 C          28.1200   56.0190   30.5020 C.2       1 SUB1        0.206
     11 O          27.8950   55.9960   31.6920 O.2       1 SUB1       -0.394
     12 CB         30.4910   55.1670   30.4590 C.3       1 SUB1       -0.010
     13 CG         30.1950   53.8310   29.7710 C.3       1 SUB1       -0.043
     14 CD1        30.5100   53.9210   28.3070 C.3       1 SUB1       -0.062
     15 CD2        30.9690   52.6700   30.3960 C.3       1 SUB1       -0.062
     16 N          27.1400   55.8420   29.6300 N.am      1 SUB1       -0.250
     17 CA         25.7960   55.5170   30.1320 C.3       1 SUB1        0.134
     18 C          25.7050   54.1180   30.7740 C.2       1 SUB1        0.204
     19 O          26.3610   53.1650   30.3130 O.2       1 SUB1       -0.394
     20 CB         24.8960   55.6360   28.8990 C.3       1 SUB1       -0.010
     21 CG         25.8050   55.5810   27.7220 C.3       1 SUB1       -0.028
     22 CD         27.1950   55.9320   28.1600 C.3       1 SUB1        0.037
     23 N          24.8510   54.0180   31.7960 N.am      1 SUB1       -0.261
     24 CA         24.8330   52.8720   32.7060 C.3       1 SUB1        0.147
     25 C          24.5630   51.5480   32.0170 C.2       1 SUB1        0.208
     26 O          25.0730   50.5000   32.4560 O.2       1 SUB1       -0.394
     27 CB         23.8220   53.0790   33.8430 C.3       1 SUB1        0.035
     28 CG         22.3600   52.8710   33.3940 C.ar      1 SUB1       -0.011
     29 CD1        21.5240   53.8220   32.9570 C.ar      1 SUB1       -0.007
     30 CD2        21.6300   51.6310   33.3130 C.ar      1 SUB1        0.004
     31 NE1        20.3100   53.2750   32.6310 N.ar      1 SUB1       -0.333
     32 CE2        20.3490   51.9320   32.8370 C.ar      1 SUB1        0.025
     33 CE3        21.9330   50.3030   33.6030 C.ar      1 SUB1       -0.040
     34 CZ2        19.3610   50.9690   32.6410 C.ar      1 SUB1       -0.036
     35 CZ3        20.9370   49.3270   33.4110 C.ar      1 SUB1       -0.042
     36 CH2        19.6710   49.6720   32.9340 C.ar      1 SUB1       -0.042
     37 N          23.7760   51.5690   30.9400 N.am      1 SUB1       -0.261
     38 CA         23.5030   50.3150   30.2480 C.3       1 SUB1        0.142
     39 C          24.7760   49.6840   29.6600 C.2       1 SUB1        0.207
     40 O          24.7810   48.4790   29.3810 O.2       1 SUB1       -0.394
     41 CB         22.3720   50.3800   29.2110 C.3       1 SUB1        0.027
     42 CG         22.5590   51.4590   28.1400 C.2       1 SUB1        0.032
     43 OD1        23.1720   52.5270   28.3650 O.co2     1 SUB1       -0.566
     44 OD2        22.0510   51.3370   27.0180 O.co2     1 SUB1       -0.566
     45 N          25.8310   50.4820   29.4750 N.am      1 SUB1       -0.264
     46 CA         27.1100   49.9670   28.9650 C.3       1 SUB1        0.131
     47 C          28.1220   49.5590   30.0830 C.2       1 SUB1        0.204
     48 O          29.1600   49.0110   29.7820 O.2       1 SUB1       -0.394
     49 CB         27.7570   51.0000   28.0030 C.3       1 SUB1       -0.010
     50 CG         27.0020   51.3240   26.7140 C.3       1 SUB1       -0.043
     51 CD1        27.7380   52.3350   25.8960 C.3       1 SUB1       -0.062
     52 CD2        26.8020   50.0640   25.9000 C.3       1 SUB1       -0.062
     53 N          27.8170   49.7960   31.3500 N.am      1 SUB1       -0.262
     54 CA         28.7860   49.5060   32.4480 C.3       1 SUB1        0.128
     55 C          29.2840   48.0870   32.4910 C.2       1 SUB1        0.128
     56 O          28.5080   47.1900   32.1620 O.2       1 SUB1       -0.372
     57 CB         28.1860   49.8740   33.7960 C.3       1 SUB1        0.034
     58 CG         28.0530   51.3660   33.9540 C.ar      1 SUB1       -0.011
     59 CD1        28.4850   52.3070   33.0910 C.ar      1 SUB1       -0.007
     60 CD2        27.4720   52.0680   35.0550 C.ar      1 SUB1        0.004
     61 NE1        28.2030   53.5600   33.5730 N.ar      1 SUB1       -0.332
     62 CE2        27.5710   53.4340   34.7780 C.ar      1 SUB1        0.025
     63 CE3        26.8140   51.6730   36.2170 C.ar      1 SUB1       -0.040
     64 CZ2        27.0900   54.4070   35.6350 C.ar      1 SUB1       -0.036
     65 CZ3        26.3410   52.6420   37.0730 C.ar      1 SUB1       -0.042
     66 CH2        26.4730   53.9840   36.7830 C.ar      1 SUB1       -0.042
     67 H11        28.2288   60.0784   31.8397 H         1 SUB1        0.202
     68 H12        29.4384   61.1326   32.2073 H         1 SUB1        0.202
     69 H13        29.6455   59.5200   32.4647 H         1 SUB1        0.202
     70 H21        29.3308   60.8420   29.8464 H         1 SUB1        0.112
     71 H51        31.7723   59.2998   30.7185 H         1 SUB1        0.067
     72 H61        32.5336   61.3630   31.5325 H         1 SUB1        0.210
     73 H71        32.8619   60.9676   29.1776 H         1 SUB1        0.026
     74 H72        31.2863   61.8004   28.9530 H         1 SUB1        0.026
     75 H73        31.5161   60.1305   28.3321 H         1 SUB1        0.026
     76 H81        30.6873   57.7045   31.1327 H         1 SUB1        0.189
     77 H91        29.5321   56.2620   28.8882 H         1 SUB1        0.080
     78 H121       30.3747   55.0401   31.5454 H         1 SUB1        0.032
     79 H122       31.5267   55.4607   30.2329 H         1 SUB1        0.032
     80 H131       29.1207   53.6231   29.8836 H         1 SUB1        0.030
     81 H141       30.2932   52.9561   27.8253 H         1 SUB1        0.023
     82 H142       31.5743   54.1656   28.1753 H         1 SUB1        0.023
     83 H143       29.8934   54.7072   27.8469 H         1 SUB1        0.023
     84 H151       30.7345   52.6085   31.4690 H         1 SUB1        0.023
     85 H152       32.0485   52.8365   30.2656 H         1 SUB1        0.023
     86 H153       30.6808   51.7297   29.9033 H         1 SUB1        0.023
     87 H171       25.4959   56.2588   30.8868 H         1 SUB1        0.080
     88 H201       24.3491   56.5903   28.9154 H         1 SUB1        0.031
     89 H202       24.1786   54.8027   28.8673 H         1 SUB1        0.031
     90 H211       25.4662   56.2991   26.9608 H         1 SUB1        0.029
     91 H212       25.7976   54.5661   27.2978 H         1 SUB1        0.029
     92 H221       27.9254   55.2180   27.7517 H         1 SUB1        0.052
     93 H222       27.4599   56.9507   27.8404 H         1 SUB1        0.052
     94 H231       24.1955   54.7582   31.9459 H         1 SUB1        0.189
     95 H241       25.8342   52.8060   33.1567 H         1 SUB1        0.084
     96 H271       23.9289   54.1050   34.2250 H         1 SUB1        0.059
     97 H272       24.0471   52.3630   34.6472 H         1 SUB1        0.059
     98 H291       21.7720   54.8739   32.8731 H         1 SUB1        0.056
     99 H331       22.9153   50.0267   33.9689 H         1 SUB1        0.083
    100 H341       18.3798   51.2404   32.2686 H         1 SUB1        0.080
    101 H351       21.1567   48.2899   33.6373 H         1 SUB1        0.068
    102 H361       18.9237   48.8993   32.7943 H         1 SUB1        0.071
    103 H371       23.3811   52.4278   30.6137 H         1 SUB1        0.189
    104 H381       23.1505   49.6219   31.0260 H         1 SUB1        0.084
    105 H411       21.4296   50.5811   29.7414 H         1 SUB1        0.053
    106 H412       22.3089   49.4035   28.7086 H         1 SUB1        0.053
    107 H451       25.7487   51.4554   29.6890 H         1 SUB1        0.188
    108 H461       26.8859   49.0598   28.3848 H         1 SUB1        0.080
    109 H491       28.7463   50.6124   27.7183 H         1 SUB1        0.032
    110 H492       27.8782   51.9405   28.5605 H         1 SUB1        0.032
    111 H501       26.0173   51.7361   26.9796 H         1 SUB1        0.030
    112 H511       27.1709   52.5466   24.9775 H         1 SUB1        0.023
    113 H512       28.7303   51.9407   25.6316 H         1 SUB1        0.023
    114 H513       27.8545   53.2620   26.4766 H         1 SUB1        0.023
    115 H521       26.2602   49.3203   26.5027 H         1 SUB1        0.023
    116 H522       27.7812   49.6565   25.6084 H         1 SUB1        0.023
    117 H523       26.2191   50.2993   24.9973 H         1 SUB1        0.023
    118 H531       26.9202   50.1766   31.5754 H         1 SUB1        0.189
    119 H541       29.6615   50.1503   32.2798 H         1 SUB1        0.083
    120 H551       30.3020   47.8600   32.8043 H         1 SUB1        0.138
    121 H571       28.8365   49.4870   34.5941 H         1 SUB1        0.059
    122 H572       27.1896   49.4157   33.8805 H         1 SUB1        0.059
    123 H591       28.9839   52.1028   32.1505 H         1 SUB1        0.056
    124 H631       26.6767   50.6218   36.4434 H         1 SUB1        0.083
    125 H641       27.1968   55.4615   35.4078 H         1 SUB1        0.080
    126 H651       25.8544   52.3439   37.9946 H         1 SUB1        0.068
    127 H661       26.0809   54.7186   37.4770 H         1 SUB1        0.071
@<TRIPOS>BOND
     1    1    2 1  
     2    2    3 1  
     3    2    5 1  
     4    3    4 2  
     5    3    8 am 
     6    5    6 1  
     7    5    7 1  
     8    8    9 1  
     9    9   10 1  
    10    9   12 1  
    11   10   11 2  
    12   10   16 am 
    13   12   13 1  
    14   13   14 1  
    15   13   15 1  
    16   16   17 1  
    17   16   22 1  
    18   17   18 1  
    19   17   20 1  
    20   18   19 2  
    21   18   23 am 
    22   20   21 1  
    23   21   22 1  
    24   23   24 1  
    25   24   25 1  
    26   24   27 1  
    27   25   26 2  
    28   25   37 am 
    29   27   28 1  
    30   28   29 ar 
    31   28   30 ar 
    32   29   31 ar 
    33   30   32 ar 
    34   30   33 ar 
    35   31   32 ar 
    36   32   34 ar 
    37   33   35 ar 
    38   34   36 ar 
    39   35   36 ar 
    40   37   38 1  
    41   38   39 1  
    42   38   41 1  
    43   39   40 2  
    44   39   45 am 
    45   41   42 1  
    46   42   43 2  
    47   42   44 2  
    48   45   46 1  
    49   46   47 1  
    50   46   49 1  
    51   47   48 2  
    52   47   53 am 
    53   49   50 1  
    54   50   51 1  
    55   50   52 1  
    56   53   54 1  
    57   54   55 1  
    58   54   57 1  
    59   55   56 2  
    60   57   58 1  
    61   58   59 ar 
    62   58   60 ar 
    63   59   61 ar 
    64   60   62 ar 
    65   60   63 ar 
    66   61   62 ar 
    67   62   64 ar 
    68   63   65 ar 
    69   64   66 ar 
    70   65   66 ar 
    71    1   67 1  
    72    1   68 1  
    73    1   69 1  
    74    2   70 1  
    75    5   71 1  
    76    6   72 1  
    77    7   73 1  
    78    7   74 1  
    79    7   75 1  
    80    8   76 1  
    81    9   77 1  
    82   12   78 1  
    83   12   79 1  
    84   13   80 1  
    85   14   81 1  
    86   14   82 1  
    87   14   83 1  
    88   15   84 1  
    89   15   85 1  
    90   15   86 1  
    91   17   87 1  
    92   20   88 1  
    93   20   89 1  
    94   21   90 1  
    95   21   91 1  
    96   22   92 1  
    97   22   93 1  
    98   23   94 1  
    99   24   95 1  
   100   27   96 1  
   101   27   97 1  
   102   29   98 1  
   103   33   99 1  
   104   34  100 1  
   105   35  101 1  
   106   36  102 1  
   107   37  103 1  
   108   38  104 1  
   109   41  105 1  
   110   41  106 1  
   111   45  107 1  
   112   46  108 1  
   113   49  109 1  
   114   49  110 1  
   115   50  111 1  
   116   51  112 1  
   117   51  113 1  
   118   51  114 1  
   119   52  115 1  
   120   52  116 1  
   121   52  117 1  
   122   53  118 1  
   123   54  119 1  
   124   55  120 1  
   125   57  121 1  
   126   57  122 1  
   127   59  123 1  
   128   63  124 1  
   129   64  125 1  
   130   65  126 1  
   131   66  127 1  
@<TRIPOS>SUBSTRUCTURE
     1 SUB1        1 GROUP

