1utc_ligand
  -I-interpret- 

127131  0  0  0  0  0  0  0  0999 V2000
   29.2280   60.2100   31.8600 N   0  3  0  0  0
   29.7790   60.0600   30.4770 C   0  0  0  0  0
   29.4610   58.7060   29.8490 C   0  0  0  0  0
   28.7380   58.6630   28.8400 O   0  0  0  0  0
   31.2730   60.2560   30.5030 C   0  0  0  0  0
   31.5930   61.2320   31.5080 O   0  0  0  0  0
   31.7710   60.8310   29.1410 C   0  0  0  0  0
   29.9930   57.6120   30.4190 N   0  0  0  0  0
   29.5490   56.2770   29.9880 C   0  0  0  0  0
   28.1200   56.0190   30.5020 C   0  0  0  0  0
   27.8950   55.9960   31.6920 O   0  0  0  0  0
   30.4910   55.1670   30.4590 C   0  0  0  0  0
   30.1950   53.8310   29.7710 C   0  0  0  0  0
   30.5100   53.9210   28.3070 C   0  0  0  0  0
   30.9690   52.6700   30.3960 C   0  0  0  0  0
   27.1400   55.8420   29.6300 N   0  0  0  0  0
   25.7960   55.5170   30.1320 C   0  0  0  0  0
   25.7050   54.1180   30.7740 C   0  0  0  0  0
   26.3610   53.1650   30.3130 O   0  0  0  0  0
   24.8960   55.6360   28.8990 C   0  0  0  0  0
   25.8050   55.5810   27.7220 C   0  0  0  0  0
   27.1950   55.9320   28.1600 C   0  0  0  0  0
   24.8510   54.0180   31.7960 N   0  0  0  0  0
   24.8330   52.8720   32.7060 C   0  0  0  0  0
   24.5630   51.5480   32.0170 C   0  0  0  0  0
   25.0730   50.5000   32.4560 O   0  0  0  0  0
   23.8220   53.0790   33.8430 C   0  0  0  0  0
   22.3600   52.8710   33.3940 C   0  0  0  0  0
   21.5240   53.8220   32.9570 C   0  0  0  0  0
   21.6300   51.6310   33.3130 C   0  0  0  0  0
   20.3100   53.2750   32.6310 N   0  0  0  0  0
   20.3490   51.9320   32.8370 C   0  0  0  0  0
   21.9330   50.3030   33.6030 C   0  0  0  0  0
   19.3610   50.9690   32.6410 C   0  0  0  0  0
   20.9370   49.3270   33.4110 C   0  0  0  0  0
   19.6710   49.6720   32.9340 C   0  0  0  0  0
   23.7760   51.5690   30.9400 N   0  0  0  0  0
   23.5030   50.3150   30.2480 C   0  0  0  0  0
   24.7760   49.6840   29.6600 C   0  0  0  0  0
   24.7810   48.4790   29.3810 O   0  0  0  0  0
   22.3720   50.3800   29.2110 C   0  0  0  0  0
   22.5590   51.4590   28.1400 C   0  0  0  0  0
   23.1720   52.5270   28.3650 O   0  5  0  0  0
   22.0510   51.3370   27.0180 O   0  0  0  0  0
   25.8310   50.4820   29.4750 N   0  0  0  0  0
   27.1100   49.9670   28.9650 C   0  0  0  0  0
   28.1220   49.5590   30.0830 C   0  0  0  0  0
   29.1600   49.0110   29.7820 O   0  0  0  0  0
   27.7570   51.0000   28.0030 C   0  0  0  0  0
   27.0020   51.3240   26.7140 C   0  0  0  0  0
   27.7380   52.3350   25.8960 C   0  0  0  0  0
   26.8020   50.0640   25.9000 C   0  0  0  0  0
   27.8170   49.7960   31.3500 N   0  0  0  0  0
   28.7860   49.5060   32.4480 C   0  0  0  0  0
   29.2840   48.0870   32.4910 C   0  0  0  0  0
   28.5080   47.1900   32.1620 O   0  0  0  0  0
   28.1860   49.8740   33.7960 C   0  0  0  0  0
   28.0530   51.3660   33.9540 C   0  0  0  0  0
   28.4850   52.3070   33.0910 C   0  0  0  0  0
   27.4720   52.0680   35.0550 C   0  0  0  0  0
   28.2030   53.5600   33.5730 N   0  0  0  0  0
   27.5710   53.4340   34.7780 C   0  0  0  0  0
   26.8140   51.6730   36.2170 C   0  0  0  0  0
   27.0900   54.4070   35.6350 C   0  0  0  0  0
   26.3410   52.6420   37.0730 C   0  0  0  0  0
   26.4730   53.9840   36.7830 C   0  0  0  0  0
   28.2288   60.0784   31.8397 H   0  0  0  0  0
   29.4384   61.1326   32.2073 H   0  0  0  0  0
   29.6455   59.5200   32.4647 H   0  0  0  0  0
   29.3308   60.8420   29.8464 H   0  0  0  0  0
   31.7723   59.2998   30.7185 H   0  0  0  0  0
   32.5336   61.3630   31.5325 H   0  0  0  0  0
   32.8619   60.9676   29.1776 H   0  0  0  0  0
   31.2863   61.8004   28.9530 H   0  0  0  0  0
   31.5161   60.1305   28.3321 H   0  0  0  0  0
   30.6873   57.7045   31.1327 H   0  0  0  0  0
   29.5321   56.2620   28.8882 H   0  0  0  0  0
   30.3747   55.0401   31.5454 H   0  0  0  0  0
   31.5267   55.4607   30.2329 H   0  0  0  0  0
   29.1207   53.6231   29.8836 H   0  0  0  0  0
   30.2932   52.9561   27.8253 H   0  0  0  0  0
   31.5743   54.1656   28.1753 H   0  0  0  0  0
   29.8934   54.7072   27.8469 H   0  0  0  0  0
   30.7345   52.6085   31.4690 H   0  0  0  0  0
   32.0485   52.8365   30.2656 H   0  0  0  0  0
   30.6808   51.7297   29.9033 H   0  0  0  0  0
   25.4959   56.2588   30.8868 H   0  0  0  0  0
   24.3491   56.5903   28.9154 H   0  0  0  0  0
   24.1786   54.8027   28.8673 H   0  0  0  0  0
   25.4662   56.2991   26.9608 H   0  0  0  0  0
   25.7976   54.5661   27.2978 H   0  0  0  0  0
   27.9254   55.2180   27.7517 H   0  0  0  0  0
   27.4599   56.9507   27.8404 H   0  0  0  0  0
   24.1955   54.7582   31.9459 H   0  0  0  0  0
   25.8342   52.8060   33.1567 H   0  0  0  0  0
   23.9289   54.1050   34.2250 H   0  0  0  0  0
   24.0471   52.3630   34.6472 H   0  0  0  0  0
   21.7720   54.8739   32.8731 H   0  0  0  0  0
   22.9153   50.0267   33.9689 H   0  0  0  0  0
   18.3798   51.2404   32.2686 H   0  0  0  0  0
   21.1567   48.2899   33.6373 H   0  0  0  0  0
   18.9237   48.8993   32.7943 H   0  0  0  0  0
   23.3811   52.4278   30.6137 H   0  0  0  0  0
   23.1505   49.6219   31.0260 H   0  0  0  0  0
   21.4296   50.5811   29.7414 H   0  0  0  0  0
   22.3089   49.4035   28.7086 H   0  0  0  0  0
   25.7487   51.4554   29.6890 H   0  0  0  0  0
   26.8859   49.0598   28.3848 H   0  0  0  0  0
   28.7463   50.6124   27.7183 H   0  0  0  0  0
   27.8782   51.9405   28.5605 H   0  0  0  0  0
   26.0173   51.7361   26.9796 H   0  0  0  0  0
   27.1709   52.5466   24.9775 H   0  0  0  0  0
   28.7303   51.9407   25.6316 H   0  0  0  0  0
   27.8545   53.2620   26.4766 H   0  0  0  0  0
   26.2602   49.3203   26.5027 H   0  0  0  0  0
   27.7812   49.6565   25.6084 H   0  0  0  0  0
   26.2191   50.2993   24.9973 H   0  0  0  0  0
   26.9202   50.1766   31.5754 H   0  0  0  0  0
   29.6615   50.1503   32.2798 H   0  0  0  0  0
   30.3020   47.8600   32.8043 H   0  0  0  0  0
   28.8365   49.4870   34.5941 H   0  0  0  0  0
   27.1896   49.4157   33.8805 H   0  0  0  0  0
   28.9839   52.1028   32.1505 H   0  0  0  0  0
   26.6767   50.6218   36.4434 H   0  0  0  0  0
   27.1968   55.4615   35.4078 H   0  0  0  0  0
   25.8544   52.3439   37.9946 H   0  0  0  0  0
   26.0809   54.7186   37.4770 H   0  0  0  0  0
  1  2  1  0  0  0
  2  3  1  0  0  0
  2  5  1  0  0  0
  3  4  2  0  0  0
  3  8  1  0  0  0
  5  6  1  0  0  0
  5  7  1  0  0  0
  8  9  1  0  0  0
  9 10  1  0  0  0
  9 12  1  0  0  0
 10 11  2  0  0  0
 10 16  1  0  0  0
 12 13  1  0  0  0
 13 14  1  0  0  0
 13 15  1  0  0  0
 16 17  1  0  0  0
 16 22  1  0  0  0
 17 18  1  0  0  0
 17 20  1  0  0  0
 18 19  2  0  0  0
 18 23  1  0  0  0
 20 21  1  0  0  0
 21 22  1  0  0  0
 23 24  1  0  0  0
 24 25  1  0  0  0
 24 27  1  0  0  0
 25 26  2  0  0  0
 25 37  1  0  0  0
 27 28  1  0  0  0
 28 29  4  0  0  0
 28 30  4  0  0  0
 29 31  4  0  0  0
 30 32  4  0  0  0
 30 33  4  0  0  0
 31 32  4  0  0  0
 32 34  4  0  0  0
 33 35  4  0  0  0
 34 36  4  0  0  0
 35 36  4  0  0  0
 37 38  1  0  0  0
 38 39  1  0  0  0
 38 41  1  0  0  0
 39 40  2  0  0  0
 39 45  1  0  0  0
 41 42  1  0  0  0
 42 43  1  0  0  0
 42 44  2  0  0  0
 45 46  1  0  0  0
 46 47  1  0  0  0
 46 49  1  0  0  0
 47 48  2  0  0  0
 47 53  1  0  0  0
 49 50  1  0  0  0
 50 51  1  0  0  0
 50 52  1  0  0  0
 53 54  1  0  0  0
 54 55  1  0  0  0
 54 57  1  0  0  0
 55 56  2  0  0  0
 57 58  1  0  0  0
 58 59  4  0  0  0
 58 60  4  0  0  0
 59 61  4  0  0  0
 60 62  4  0  0  0
 60 63  4  0  0  0
 61 62  4  0  0  0
 62 64  4  0  0  0
 63 65  4  0  0  0
 64 66  4  0  0  0
 65 66  4  0  0  0
  1 67  1  0  0  0
  1 68  1  0  0  0
  1 69  1  0  0  0
  2 70  1  0  0  0
  5 71  1  0  0  0
  6 72  1  0  0  0
  7 73  1  0  0  0
  7 74  1  0  0  0
  7 75  1  0  0  0
  8 76  1  0  0  0
  9 77  1  0  0  0
 12 78  1  0  0  0
 12 79  1  0  0  0
 13 80  1  0  0  0
 14 81  1  0  0  0
 14 82  1  0  0  0
 14 83  1  0  0  0
 15 84  1  0  0  0
 15 85  1  0  0  0
 15 86  1  0  0  0
 17 87  1  0  0  0
 20 88  1  0  0  0
 20 89  1  0  0  0
 21 90  1  0  0  0
 21 91  1  0  0  0
 22 92  1  0  0  0
 22 93  1  0  0  0
 23 94  1  0  0  0
 24 95  1  0  0  0
 27 96  1  0  0  0
 27 97  1  0  0  0
 29 98  1  0  0  0
 33 99  1  0  0  0
 34100  1  0  0  0
 35101  1  0  0  0
 36102  1  0  0  0
 37103  1  0  0  0
 38104  1  0  0  0
 41105  1  0  0  0
 41106  1  0  0  0
 45107  1  0  0  0
 46108  1  0  0  0
 49109  1  0  0  0
 49110  1  0  0  0
 50111  1  0  0  0
 51112  1  0  0  0
 51113  1  0  0  0
 51114  1  0  0  0
 52115  1  0  0  0
 52116  1  0  0  0
 52117  1  0  0  0
 53118  1  0  0  0
 54119  1  0  0  0
 55120  1  0  0  0
 57121  1  0  0  0
 57122  1  0  0  0
 59123  1  0  0  0
 63124  1  0  0  0
 64125  1  0  0  0
 65126  1  0  0  0
 66127  1  0  0  0
M  END
$$$$
