### 
### Created by X-TOOL on Tue Oct 25 00:12:54 2005
### 

@<TRIPOS>MOLECULE
1zpa_ligand
   99   102     1     0     0
SMALL
GAST_HUCK


@<TRIPOS>ATOM
      1 C         -11.3110   15.0080   33.1070 C.2       1 SUB1        0.201
      2 O         -11.9100   16.0560   32.9280 O.2       1 SUB1       -0.388
      3 N          -9.9930   14.9170   32.9080 N.am      1 SUB1       -0.279
      4 C1         -9.1460   15.9350   32.2870 C.3       1 SUB1        0.065
      5 C2         -9.1490   15.7330   30.7820 C.2       1 SUB1        0.059
      6 C3        -10.0110   16.3390   29.9000 C.2       1 SUB1        0.072
      7 N1         -9.6790   15.9110   28.6510 N.pl3     1 SUB1       -0.174
      8 N2         -8.6370   15.0360   28.8100 N.2       1 SUB1       -0.101
      9 N3         -8.3210   14.9250   30.0560 N.2       1 SUB1       -0.225
     10 C4        -10.2530   16.1940   27.3260 C.3       1 SUB1        0.123
     11 C5        -10.0740   17.7050   26.9270 C.3       1 SUB1        0.107
     12 C6         -9.6400   17.9140   25.4410 C.3       1 SUB1        0.059
     13 N4         -8.4720   17.1300   25.1160 N.am      1 SUB1       -0.232
     14 C7         -7.1610   17.6470   25.4380 C.3       1 SUB1        0.032
     15 C8         -6.2770   16.7300   26.3240 C.3       1 SUB1       -0.030
     16 C9         -4.8430   16.5550   25.7790 C.3       1 SUB1       -0.061
     17 C10        -6.3080   17.1020   27.8300 C.3       1 SUB1       -0.061
     18 S          -8.6280   15.7260   24.1070 S.o2      1 SUB1        0.066
     19 O1         -9.9520   15.1690   24.2520 O.2       1 SUB1       -0.152
     20 O2         -7.6860   14.7010   24.4530 O.2       1 SUB1       -0.152
     21 C11        -8.4070   16.1390   22.4360 C.ar      1 SUB1        0.097
     22 C12        -7.1640   15.9780   21.8390 C.ar      1 SUB1       -0.044
     23 C13        -6.9810   16.3120   20.4880 C.ar      1 SUB1       -0.031
     24 C14        -8.0520   16.8220   19.7800 C.ar      1 SUB1        0.091
     25 C15        -9.3060   16.9630   20.3690 C.ar      1 SUB1       -0.031
     26 C16        -9.4810   16.6190   21.6980 C.ar      1 SUB1       -0.044
     27 O3         -7.9040   17.1310   18.4830 O.3       1 SUB1       -0.321
     28 C17        -6.7140   16.9930   17.7380 C.3       1 SUB1        0.059
     29 C18       -11.7160   15.6530   27.3280 C.3       1 SUB1        0.017
     30 O4        -11.2450   18.4740   27.1270 O.3       1 SUB1       -0.387
     31 C19       -11.9790   14.2230   27.7210 C.ar      1 SUB1       -0.040
     32 C20       -11.4590   13.1770   26.9470 C.ar      1 SUB1       -0.060
     33 C21       -11.6970   11.8540   27.2910 C.ar      1 SUB1       -0.069
     34 C22       -12.4440   11.5570   28.4270 C.ar      1 SUB1       -0.069
     35 C23       -12.9610   12.5870   29.2060 C.ar      1 SUB1       -0.069
     36 C24       -12.7470   13.9110   28.8420 C.ar      1 SUB1       -0.060
     37 C25       -12.0760   13.8560   33.5520 C.ar      1 SUB1        0.043
     38 C26       -13.4580   13.9670   33.7050 C.ar      1 SUB1       -0.049
     39 C27       -14.1920   12.8660   34.1330 C.ar      1 SUB1       -0.052
     40 C28       -13.5560   11.6650   34.4070 C.ar      1 SUB1       -0.016
     41 C29       -12.1750   11.5580   34.2540 C.ar      1 SUB1       -0.052
     42 C30       -11.4410   12.6550   33.8100 C.ar      1 SUB1       -0.049
     43 C31       -14.3300   10.4530   34.8700 C.3       1 SUB1        0.068
     44 N5        -15.6130   10.8580   35.4650 N.am      1 SUB1       -0.250
     45 C45       -16.7270   10.1300   35.2070 C.2       1 SUB1        0.322
     46 O46       -17.3980    9.7170   36.1320 O.2       1 SUB1       -0.377
     47 O47       -17.0870    9.8650   33.9500 O.3       1 SUB1       -0.258
     48 C48       -16.5160   10.2600   32.7060 C.3       1 SUB1        0.090
     49 C49       -17.7600   10.4630   31.7580 C.3       1 SUB1       -0.032
     50 C50       -15.7490   11.5930   32.8650 C.3       1 SUB1       -0.032
     51 C51       -15.6110    9.1300   32.1570 C.3       1 SUB1       -0.032
     52 H31        -9.5447   14.0762   33.2113 H         1 SUB1        0.186
     53 H41        -8.1186   15.8426   32.6690 H         1 SUB1        0.064
     54 H42        -9.5372   16.9351   32.5252 H         1 SUB1        0.064
     55 H61       -10.8112   17.0329   30.1531 H         1 SUB1        0.090
     56 H101       -9.6931   15.6098   26.5809 H         1 SUB1        0.073
     57 H111       -9.2825   18.1129   27.5728 H         1 SUB1        0.064
     58 H121       -9.4119   18.9782   25.2814 H         1 SUB1        0.051
     59 H122      -10.4672   17.6133   24.7813 H         1 SUB1        0.051
     60 H141       -7.2946   18.6020   25.9673 H         1 SUB1        0.048
     61 H142       -6.6254   17.8230   24.4935 H         1 SUB1        0.048
     62 H151       -6.7381   15.7334   26.2605 H         1 SUB1        0.031
     63 H161       -4.2730   15.8969   26.4513 H         1 SUB1        0.023
     64 H162       -4.3500   17.5367   25.7222 H         1 SUB1        0.023
     65 H163       -4.8843   16.1067   24.7753 H         1 SUB1        0.023
     66 H171       -7.3518   17.2127   28.1589 H         1 SUB1        0.023
     67 H172       -5.7724   18.0503   27.9846 H         1 SUB1        0.023
     68 H173       -5.8219   16.3068   28.4142 H         1 SUB1        0.023
     69 H221       -6.3323   15.5932   22.4179 H         1 SUB1        0.061
     70 H231       -6.0183   16.1725   20.0097 H         1 SUB1        0.054
     71 H251      -10.1408   17.3403   19.7895 H         1 SUB1        0.054
     72 H261      -10.4549   16.7241   22.1622 H         1 SUB1        0.061
     73 H281       -6.8888   17.3231   16.7034 H         1 SUB1        0.058
     74 H282       -6.4013   15.9384   17.7385 H         1 SUB1        0.058
     75 H283       -5.9240   17.6099   18.1912 H         1 SUB1        0.058
     76 H291      -12.1054   15.7807   26.3072 H         1 SUB1        0.046
     77 H292      -12.2898   16.2856   28.0212 H         1 SUB1        0.046
     78 H301      -11.5403   18.3717   28.0241 H         1 SUB1        0.210
     79 H321      -10.8641   13.4039   26.0697 H         1 SUB1        0.056
     80 H331      -11.3019   11.0534   26.6762 H         1 SUB1        0.060
     81 H341      -12.6227   10.5245   28.7044 H         1 SUB1        0.056
     82 H351      -13.5317   12.3565   30.0983 H         1 SUB1        0.060
     83 H361      -13.1810   14.7081   29.4348 H         1 SUB1        0.056
     84 H381      -13.9567   14.9055   33.4916 H         1 SUB1        0.065
     85 H391      -15.2663   12.9473   34.2529 H         1 SUB1        0.057
     86 H411      -11.6737   10.6238   34.4799 H         1 SUB1        0.057
     87 H421      -10.3701   12.5673   33.6664 H         1 SUB1        0.065
     88 H431      -13.7377    9.9104   35.6215 H         1 SUB1        0.069
     89 H432      -14.5216    9.7953   34.0094 H         1 SUB1        0.069
     90 H441      -15.6629   11.6638   36.0550 H         1 SUB1        0.190
     91 H491      -17.4143   10.7731   30.7608 H         1 SUB1        0.026
     92 H492      -18.4169   11.2399   32.1763 H         1 SUB1        0.026
     93 H493      -18.3164    9.5177   31.6756 H         1 SUB1        0.026
     94 H501      -15.3147   11.8838   31.8971 H         1 SUB1        0.026
     95 H502      -14.9447   11.4673   33.6047 H         1 SUB1        0.026
     96 H503      -16.4418   12.3763   33.2062 H         1 SUB1        0.026
     97 H511      -15.1747    9.4434   31.1971 H         1 SUB1        0.026
     98 H512      -16.2106    8.2200   32.0075 H         1 SUB1        0.026
     99 H513      -14.8047    8.9238   32.8763 H         1 SUB1        0.026
@<TRIPOS>BOND
     1    1    2 2  
     2    1    3 am 
     3    1   37 1  
     4    3    4 1  
     5    4    5 1  
     6    5    6 2  
     7    5    9 1  
     8    6    7 1  
     9    7    8 1  
    10    7   10 1  
    11    8    9 2  
    12   10   11 1  
    13   10   29 1  
    14   11   12 1  
    15   11   30 1  
    16   12   13 1  
    17   13   14 1  
    18   13   18 1  
    19   14   15 1  
    20   15   16 1  
    21   15   17 1  
    22   18   19 2  
    23   18   20 2  
    24   18   21 1  
    25   21   22 ar 
    26   21   26 ar 
    27   22   23 ar 
    28   23   24 ar 
    29   24   25 ar 
    30   24   27 1  
    31   25   26 ar 
    32   27   28 1  
    33   29   31 1  
    34   31   32 ar 
    35   31   36 ar 
    36   32   33 ar 
    37   33   34 ar 
    38   34   35 ar 
    39   35   36 ar 
    40   37   38 ar 
    41   37   42 ar 
    42   38   39 ar 
    43   39   40 ar 
    44   40   41 ar 
    45   40   43 1  
    46   41   42 ar 
    47   43   44 1  
    48   44   45 am 
    49   45   46 2  
    50   45   47 1  
    51   47   48 1  
    52   48   49 1  
    53   48   50 1  
    54   48   51 1  
    55    3   52 1  
    56    4   53 1  
    57    4   54 1  
    58    6   55 1  
    59   10   56 1  
    60   11   57 1  
    61   12   58 1  
    62   12   59 1  
    63   14   60 1  
    64   14   61 1  
    65   15   62 1  
    66   16   63 1  
    67   16   64 1  
    68   16   65 1  
    69   17   66 1  
    70   17   67 1  
    71   17   68 1  
    72   22   69 1  
    73   23   70 1  
    74   25   71 1  
    75   26   72 1  
    76   28   73 1  
    77   28   74 1  
    78   28   75 1  
    79   29   76 1  
    80   29   77 1  
    81   30   78 1  
    82   32   79 1  
    83   33   80 1  
    84   34   81 1  
    85   35   82 1  
    86   36   83 1  
    87   38   84 1  
    88   39   85 1  
    89   41   86 1  
    90   42   87 1  
    91   43   88 1  
    92   43   89 1  
    93   44   90 1  
    94   49   91 1  
    95   49   92 1  
    96   49   93 1  
    97   50   94 1  
    98   50   95 1  
    99   50   96 1  
   100   51   97 1  
   101   51   98 1  
   102   51   99 1  
@<TRIPOS>SUBSTRUCTURE
     1 SUB1        1 GROUP

