2fdp_ligand
  -I-interpret- 

 83 85  0  0  0  0  0  0  0  0999 V2000
    6.4360   -3.4430   47.6330 C   0  0  0  0  0
    5.2030   -3.2140   48.2440 C   0  0  0  0  0
    6.2860   -3.1240   50.3960 C   0  0  0  0  0
   14.7320   -6.6620   50.3870 C   0  0  0  0  0
   14.9530   -6.4920   49.0190 C   0  0  0  0  0
   15.8690   -8.7370   48.9100 C   0  0  0  0  0
   15.6420   -8.8990   50.2730 C   0  0  0  0  0
   15.0760   -7.8620   51.0100 C   0  0  0  0  0
   11.3700   -3.1390   47.4280 C   0  0  0  0  0
    8.9240   -3.7690   47.6910 C   0  0  0  0  0
   14.1040   -4.2230   48.8310 C   0  0  0  0  0
   10.1190   -3.0290   48.3100 C   0  0  0  0  0
    9.9800   -0.8610   49.4780 C   0  0  0  0  0
    4.8430    3.0000   50.9840 C   0  0  0  0  0
    4.9770    0.6060   45.3410 C   0  0  0  0  0
    4.1570    1.9000   50.2020 C   0  0  0  0  0
    4.0590    0.7510   46.5360 C   0  0  0  0  0
    4.2710    2.0730   47.2780 C   0  0  0  0  0
    5.1400    1.0810   49.3640 C   0  0  0  0  0
    6.6200    2.3680   47.8440 C   0  0  0  0  0
    8.3560    0.8520   48.7260 C   0  0  0  0  0
    9.4810    0.5540   49.4830 C   0  0  0  0  0
   10.0910    1.5610   50.2340 C   0  0  0  0  0
    7.8260    2.1370   48.7070 C   0  0  0  0  0
    8.4390    3.1520   49.4410 C   0  0  0  0  0
    9.5700    2.8580   50.2080 C   0  0  0  0  0
   15.9740  -10.0530   50.8790 F   0  0  0  0  0
   15.5220   -7.5390   48.2920 C   0  0  0  0  0
   14.6460   -5.3450   48.3450 N   0  0  0  0  0
   13.7960   -4.0460   49.9960 O   0  0  0  0  0
   13.8940   -3.1290   47.8200 C   0  0  0  0  0
   15.0500   -2.1360   47.9100 C   0  0  0  0  0
   12.5660   -2.4110   48.0430 C   0  0  0  0  0
   11.1000   -2.6300   46.0980 N   0  3  0  0  0
    7.6010   -3.5130   48.3950 C   0  0  0  0  0
    7.5180   -3.3590   49.7830 C   0  0  0  0  0
    5.1250   -3.0530   49.6270 C   0  0  0  0  0
    9.7120   -1.6260   48.4130 N   0  0  0  0  0
   10.6000   -1.2740   50.4470 O   0  0  0  0  0
    6.7850    3.0060   46.8190 O   0  0  0  0  0
    5.4190    1.8610   48.1560 N   0  0  0  0  0
    6.4888   -3.5681   46.5515 H   0  0  0  0  0
    4.2981   -3.1608   47.6387 H   0  0  0  0  0
    6.2315   -2.9959   51.4771 H   0  0  0  0  0
   14.2893   -5.8546   50.9702 H   0  0  0  0  0
   16.3161   -9.5438   48.3292 H   0  0  0  0  0
   14.9009   -7.9883   52.0784 H   0  0  0  0  0
   11.6279   -4.1957   47.3583 H   0  0  0  0  0
    9.1299   -4.8364   47.7708 H   0  0  0  0  0
    8.8185   -3.4103   46.6671 H   0  0  0  0  0
   10.3758   -3.4603   49.2775 H   0  0  0  0  0
    5.5773    2.5605   51.6591 H   0  0  0  0  0
    5.3433    3.6779   50.2925 H   0  0  0  0  0
    4.1006    3.5508   51.5615 H   0  0  0  0  0
    4.7903    1.4197   44.6402 H   0  0  0  0  0
    6.0141    0.6428   45.6745 H   0  0  0  0  0
    4.7853   -0.3486   44.8509 H   0  0  0  0  0
    3.4408    2.3642   49.5240 H   0  0  0  0  0
    3.6788    1.2275   50.9142 H   0  0  0  0  0
    4.2756   -0.0626   47.2282 H   0  0  0  0  0
    3.0305    0.7277   46.1758 H   0  0  0  0  0
    3.3846    2.3533   47.8471 H   0  0  0  0  0
    4.4517    2.8922   46.5821 H   0  0  0  0  0
    4.7160    0.1098   49.1088 H   0  0  0  0  0
    6.0569    0.8881   49.9210 H   0  0  0  0  0
    7.8812    0.0667   48.1378 H   0  0  0  0  0
   10.9700    1.3366   50.8382 H   0  0  0  0  0
    8.0396    4.1659   49.4168 H   0  0  0  0  0
   10.0490    3.6455   50.7898 H   0  0  0  0  0
   15.6974   -7.4165   47.2232 H   0  0  0  0  0
   14.8561   -5.3436   47.3469 H   0  0  0  0  0
   13.8638   -3.5752   46.8260 H   0  0  0  0  0
   15.0828   -1.7084   48.9121 H   0  0  0  0  0
   15.9875   -2.6520   47.7030 H   0  0  0  0  0
   14.9022   -1.3411   47.1790 H   0  0  0  0  0
   12.3991   -2.3562   49.1188 H   0  0  0  0  0
   12.6368   -1.4340   47.5649 H   0  0  0  0  0
   11.9413   -2.7110   45.5270 H   0  0  0  0  0
   10.3466   -3.1717   45.6744 H   0  0  0  0  0
   10.8228   -1.6504   46.1600 H   0  0  0  0  0
    8.4212   -3.4229   50.3898 H   0  0  0  0  0
    4.1618   -2.8726   50.1042 H   0  0  0  0  0
    9.1991   -1.2115   47.6349 H   0  0  0  0  0
  1  2  4  0  0  0
 35  1  4  0  0  0
  2 37  4  0  0  0
  3 36  4  0  0  0
 37  3  4  0  0  0
  5  4  4  0  0  0
  4  8  4  0  0  0
  5 28  4  0  0  0
 29  5  1  0  0  0
  6  7  4  0  0  0
 28  6  4  0  0  0
  8  7  4  0  0  0
  7 27  1  0  0  0
  9 12  1  0  0  0
 33  9  1  0  0  0
  9 34  1  0  0  0
 12 10  1  0  0  0
 10 35  1  0  0  0
 11 29  1  0  0  0
 11 30  2  0  0  0
 31 11  1  0  0  0
 12 38  1  0  0  0
 13 22  1  0  0  0
 38 13  1  0  0  0
 13 39  2  0  0  0
 16 14  1  0  0  0
 17 15  1  0  0  0
 19 16  1  0  0  0
 18 17  1  0  0  0
 41 18  1  0  0  0
 41 19  1  0  0  0
 24 20  1  0  0  0
 20 40  2  0  0  0
 20 41  1  0  0  0
 22 21  4  0  0  0
 21 24  4  0  0  0
 22 23  4  0  0  0
 23 26  4  0  0  0
 24 25  4  0  0  0
 26 25  4  0  0  0
 31 32  1  0  0  0
 31 33  1  0  0  0
 35 36  4  0  0  0
  1 42  1  0  0  0
  2 43  1  0  0  0
  3 44  1  0  0  0
  4 45  1  0  0  0
  6 46  1  0  0  0
  8 47  1  0  0  0
  9 48  1  0  0  0
 10 49  1  0  0  0
 10 50  1  0  0  0
 12 51  1  0  0  0
 14 52  1  0  0  0
 14 53  1  0  0  0
 14 54  1  0  0  0
 15 55  1  0  0  0
 15 56  1  0  0  0
 15 57  1  0  0  0
 16 58  1  0  0  0
 16 59  1  0  0  0
 17 60  1  0  0  0
 17 61  1  0  0  0
 18 62  1  0  0  0
 18 63  1  0  0  0
 19 64  1  0  0  0
 19 65  1  0  0  0
 21 66  1  0  0  0
 23 67  1  0  0  0
 25 68  1  0  0  0
 26 69  1  0  0  0
 28 70  1  0  0  0
 29 71  1  0  0  0
 31 72  1  0  0  0
 32 73  1  0  0  0
 32 74  1  0  0  0
 32 75  1  0  0  0
 33 76  1  0  0  0
 33 77  1  0  0  0
 34 78  1  0  0  0
 34 79  1  0  0  0
 34 80  1  0  0  0
 36 81  1  0  0  0
 37 82  1  0  0  0
 38 83  1  0  0  0
M  END
$$$$
