### 
### Created by X-TOOL on Sun Jun  3 11:23:32 2007
### 

@<TRIPOS>MOLECULE
2fdp_ligand
   83    85     1     0     0
SMALL
GAST_HUCK


@<TRIPOS>ATOM
      1 C31         6.4360   -3.4430   47.6330 C.ar      1 SUB1       -0.060
      2 C30         5.2030   -3.2140   48.2440 C.ar      1 SUB1       -0.069
      3 C28         6.2860   -3.1240   50.3960 C.ar      1 SUB1       -0.069
      4 C27        14.7320   -6.6620   50.3870 C.ar      1 SUB1       -0.043
      5 C26        14.9530   -6.4920   49.0190 C.ar      1 SUB1        0.062
      6 C24        15.8690   -8.7370   48.9100 C.ar      1 SUB1       -0.042
      7 C23        15.6420   -8.8990   50.2730 C.ar      1 SUB1        0.116
      8 C22        15.0760   -7.8620   51.0100 C.ar      1 SUB1       -0.042
      9 C16        11.3700   -3.1390   47.4280 C.3       1 SUB1        0.003
     10 C17         8.9240   -3.7690   47.6910 C.3       1 SUB1        0.009
     11 C20        14.1040   -4.2230   48.8310 C.2       1 SUB1        0.206
     12 C15        10.1190   -3.0290   48.3100 C.3       1 SUB1        0.094
     13 C12         9.9800   -0.8610   49.4780 C.2       1 SUB1        0.207
     14 C13         4.8430    3.0000   50.9840 C.3       1 SUB1       -0.063
     15 C14         4.9770    0.6060   45.3410 C.3       1 SUB1       -0.063
     16 C11         4.1570    1.9000   50.2020 C.3       1 SUB1       -0.035
     17 C10         4.0590    0.7510   46.5360 C.3       1 SUB1       -0.035
     18 C9          4.2710    2.0730   47.2780 C.3       1 SUB1        0.033
     19 C8          5.1400    1.0810   49.3640 C.3       1 SUB1        0.033
     20 C7          6.6200    2.3680   47.8440 C.2       1 SUB1        0.208
     21 C4          8.3560    0.8520   48.7260 C.ar      1 SUB1       -0.022
     22 C5          9.4810    0.5540   49.4830 C.ar      1 SUB1        0.055
     23 C6         10.0910    1.5610   50.2340 C.ar      1 SUB1       -0.038
     24 C3          7.8260    2.1370   48.7070 C.ar      1 SUB1        0.056
     25 C2          8.4390    3.1520   49.4410 C.ar      1 SUB1       -0.038
     26 C1          9.5700    2.8580   50.2080 C.ar      1 SUB1       -0.051
     27 F1         15.9740  -10.0530   50.8790 F         1 SUB1       -0.196
     28 C25        15.5220   -7.5390   48.2920 C.ar      1 SUB1       -0.043
     29 N3         14.6460   -5.3450   48.3450 N.am      1 SUB1       -0.236
     30 O3         13.7960   -4.0460   49.9960 O.2       1 SUB1       -0.385
     31 C19        13.8940   -3.1290   47.8200 C.3       1 SUB1        0.057
     32 C21        15.0500   -2.1360   47.9100 C.3       1 SUB1       -0.045
     33 C18        12.5660   -2.4110   48.0430 C.3       1 SUB1        0.012
     34 N4         11.1000   -2.6300   46.0980 N.4       1 SUB1        0.223
     35 C32         7.6010   -3.5130   48.3950 C.ar      1 SUB1       -0.041
     36 C33         7.5180   -3.3590   49.7830 C.ar      1 SUB1       -0.060
     37 C29         5.1250   -3.0530   49.6270 C.ar      1 SUB1       -0.069
     38 N2          9.7120   -1.6260   48.4130 N.am      1 SUB1       -0.276
     39 O2         10.6000   -1.2740   50.4470 O.2       1 SUB1       -0.385
     40 O1          6.7850    3.0060   46.8190 O.2       1 SUB1       -0.384
     41 N1          5.4190    1.8610   48.1560 N.am      1 SUB1       -0.272
     42 H           6.4888   -3.5681   46.5515 H         1 SUB1        0.056
     43 H           4.2981   -3.1608   47.6387 H         1 SUB1        0.060
     44 H           6.2315   -2.9959   51.4771 H         1 SUB1        0.060
     45 H          14.2893   -5.8546   50.9702 H         1 SUB1        0.049
     46 H          16.3161   -9.5438   48.3292 H         1 SUB1        0.057
     47 H          14.9009   -7.9883   52.0784 H         1 SUB1        0.057
     48 H          11.6279   -4.1957   47.3583 H         1 SUB1        0.088
     49 H           9.1299   -4.8364   47.7708 H         1 SUB1        0.045
     50 H           8.8185   -3.4103   46.6671 H         1 SUB1        0.045
     51 H          10.3758   -3.4603   49.2775 H         1 SUB1        0.064
     52 H           5.5773    2.5605   51.6591 H         1 SUB1        0.023
     53 H           5.3433    3.6779   50.2925 H         1 SUB1        0.023
     54 H           4.1006    3.5508   51.5615 H         1 SUB1        0.023
     55 H           4.7903    1.4197   44.6402 H         1 SUB1        0.023
     56 H           6.0141    0.6428   45.6745 H         1 SUB1        0.023
     57 H           4.7853   -0.3486   44.8509 H         1 SUB1        0.023
     58 H           3.4408    2.3642   49.5240 H         1 SUB1        0.028
     59 H           3.6788    1.2275   50.9142 H         1 SUB1        0.028
     60 H           4.2756   -0.0626   47.2282 H         1 SUB1        0.028
     61 H           3.0305    0.7277   46.1758 H         1 SUB1        0.028
     62 H           3.3846    2.3533   47.8471 H         1 SUB1        0.052
     63 H           4.4517    2.8922   46.5821 H         1 SUB1        0.052
     64 H           4.7160    0.1098   49.1088 H         1 SUB1        0.052
     65 H           6.0569    0.8881   49.9210 H         1 SUB1        0.052
     66 H           7.8812    0.0667   48.1378 H         1 SUB1        0.072
     67 H          10.9700    1.3366   50.8382 H         1 SUB1        0.070
     68 H           8.0396    4.1659   49.4168 H         1 SUB1        0.070
     69 H          10.0490    3.6455   50.7898 H         1 SUB1        0.064
     70 H          15.6974   -7.4165   47.2232 H         1 SUB1        0.049
     71 H          14.8561   -5.3436   47.3469 H         1 SUB1        0.224
     72 H          13.8638   -3.5752   46.8260 H         1 SUB1        0.054
     73 H          15.0828   -1.7084   48.9121 H         1 SUB1        0.026
     74 H          15.9875   -2.6520   47.7030 H         1 SUB1        0.026
     75 H          14.9022   -1.3411   47.1790 H         1 SUB1        0.026
     76 H          12.3991   -2.3562   49.1188 H         1 SUB1        0.035
     77 H          12.6368   -1.4340   47.5649 H         1 SUB1        0.035
     78 H          11.9413   -2.7110   45.5270 H         1 SUB1        0.200
     79 H          10.3466   -3.1717   45.6744 H         1 SUB1        0.200
     80 H          10.8228   -1.6504   46.1600 H         1 SUB1        0.200
     81 H           8.4212   -3.4229   50.3898 H         1 SUB1        0.056
     82 H           4.1618   -2.8726   50.1042 H         1 SUB1        0.056
     83 H           9.1991   -1.2115   47.6349 H         1 SUB1        0.185
@<TRIPOS>BOND
     1    1    2 ar 
     2   35    1 ar 
     3    2   37 ar 
     4    3   36 ar 
     5   37    3 ar 
     6    5    4 ar 
     7    4    8 ar 
     8    5   28 ar 
     9   29    5 1  
    10    6    7 ar 
    11   28    6 ar 
    12    8    7 ar 
    13    7   27 1  
    14    9   12 1  
    15   33    9 1  
    16    9   34 1  
    17   12   10 1  
    18   10   35 1  
    19   11   29 am 
    20   11   30 2  
    21   31   11 1  
    22   12   38 1  
    23   13   22 1  
    24   38   13 am 
    25   13   39 2  
    26   16   14 1  
    27   17   15 1  
    28   19   16 1  
    29   18   17 1  
    30   41   18 1  
    31   41   19 1  
    32   24   20 1  
    33   20   40 2  
    34   20   41 am 
    35   22   21 ar 
    36   21   24 ar 
    37   22   23 ar 
    38   23   26 ar 
    39   24   25 ar 
    40   26   25 ar 
    41   31   32 1  
    42   31   33 1  
    43   35   36 ar 
    44    1   42 1  
    45    2   43 1  
    46    3   44 1  
    47    4   45 1  
    48    6   46 1  
    49    8   47 1  
    50    9   48 1  
    51   10   49 1  
    52   10   50 1  
    53   12   51 1  
    54   14   52 1  
    55   14   53 1  
    56   14   54 1  
    57   15   55 1  
    58   15   56 1  
    59   15   57 1  
    60   16   58 1  
    61   16   59 1  
    62   17   60 1  
    63   17   61 1  
    64   18   62 1  
    65   18   63 1  
    66   19   64 1  
    67   19   65 1  
    68   21   66 1  
    69   23   67 1  
    70   25   68 1  
    71   26   69 1  
    72   28   70 1  
    73   29   71 1  
    74   31   72 1  
    75   32   73 1  
    76   32   74 1  
    77   32   75 1  
    78   33   76 1  
    79   33   77 1  
    80   34   78 1  
    81   34   79 1  
    82   34   80 1  
    83   36   81 1  
    84   37   82 1  
    85   38   83 1  
@<TRIPOS>SUBSTRUCTURE
     1 SUB1        1 GROUP

