### 
### Created by X-TOOL on Mon Oct 24 21:52:40 2005
### 

@<TRIPOS>MOLECULE
1gvx_ligand
  127   129     1     0     0
SMALL
GAST_HUCK


@<TRIPOS>ATOM
      1 N           3.2120   24.9030   22.0330 N.4       1 SUB1        0.246
      2 CA          3.3150   25.2870   20.6090 C.3       1 SUB1        0.067
      3 C           3.4820   26.7870   20.3460 C.2       1 SUB1        0.227
      4 O           2.9720   27.5510   21.2060 O.2       1 SUB1       -0.391
      5 CB          1.9610   24.8390   20.0330 C.3       1 SUB1        0.013
      6 CG          1.5210   23.6970   20.8660 C.3       1 SUB1       -0.005
      7 CD          2.1420   23.9000   22.2210 C.3       1 SUB1       -0.031
      8 N           4.1790   27.2140   19.2900 N.am      1 SUB1       -0.259
      9 CA          4.3720   28.6190   18.8770 C.3       1 SUB1        0.157
     10 C           3.5220   28.9530   17.6360 C.2       1 SUB1        0.206
     11 O           3.1590   28.0090   16.8220 O.2       1 SUB1       -0.394
     12 CB          5.8770   28.8830   18.5580 C.3       1 SUB1        0.092
     13 OG1         6.1910   28.1510   17.3690 O.3       1 SUB1       -0.387
     14 CG2         6.7790   28.3240   19.6400 C.3       1 SUB1       -0.035
     15 N           3.2110   30.2350   17.4400 N.am      1 SUB1       -0.263
     16 CA          2.4980   30.7410   16.2280 C.3       1 SUB1        0.134
     17 C           3.1950   32.0120   15.7130 C.2       1 SUB1        0.203
     18 O           2.5570   33.1050   15.6020 O.2       1 SUB1       -0.394
     19 CB          0.9910   31.0140   16.4550 C.3       1 SUB1       -0.001
     20 CG          0.2080   29.7350   16.8360 C.3       1 SUB1       -0.010
     21 CD         -1.2090   30.0900   17.2880 C.2       1 SUB1        0.028
     22 OE1        -2.0280   30.4060   16.4360 O.co2     1 SUB1       -0.567
     23 OE2        -1.4220   30.0410   18.5020 O.co2     1 SUB1       -0.567
     24 N           4.4940   31.9280   15.2950 N.am      1 SUB1       -0.275
     25 C1A         5.2900   33.0910   14.9050 C.3       1 SUB1        0.091
     26 CT          5.2060   33.4120   13.3870 C.3       1 SUB1       -0.006
     27 CB          6.8140   32.9110   15.2700 C.3       1 SUB1        0.009
     28 CG          7.1910   32.6490   16.7300 C.ar      1 SUB1       -0.041
     29 CD1         8.2800   31.7980   17.0120 C.ar      1 SUB1       -0.060
     30 CD2         6.5500   33.2160   17.8050 C.ar      1 SUB1       -0.060
     31 CE1         8.6950   31.5060   18.3320 C.ar      1 SUB1       -0.069
     32 CE2         6.9530   32.9520   19.1220 C.ar      1 SUB1       -0.069
     33 CZ          8.0470   32.1540   19.3840 C.ar      1 SUB1       -0.069
     34 N1          3.7810   33.4720   12.8670 N.4       1 SUB1        0.249
     35 C2A         3.4800   34.6400   11.9890 C.3       1 SUB1        0.076
     36 CT1         3.3770   35.9070   12.8430 C.2       1 SUB1        0.229
     37 O           2.9620   35.8850   14.0190 O.2       1 SUB1       -0.391
     38 CB1         2.1660   34.4130   11.1760 C.3       1 SUB1        0.042
     39 CG1         0.8810   34.0960   12.0030 C.ar      1 SUB1       -0.035
     40 CD3         0.6020   32.7830   12.3650 C.ar      1 SUB1       -0.060
     41 CD4         0.0040   35.0640   12.4810 C.ar      1 SUB1       -0.060
     42 CE3        -0.5300   32.4460   13.1280 C.ar      1 SUB1       -0.069
     43 CE4        -1.1730   34.7540   13.1760 C.ar      1 SUB1       -0.069
     44 CZ1        -1.3770   33.4360   13.5400 C.ar      1 SUB1       -0.069
     45 N           3.7860   37.0730   12.2150 N.am      1 SUB1       -0.261
     46 CA          3.4990   38.4110   12.8100 C.3       1 SUB1        0.131
     47 C           1.9770   38.7070   12.8140 C.2       1 SUB1        0.205
     48 O           1.3150   38.4850   11.7880 O.2       1 SUB1       -0.394
     49 CB          4.2470   39.5160   12.0070 C.3       1 SUB1       -0.011
     50 CG          3.9640   40.9110   12.5920 C.3       1 SUB1       -0.030
     51 CD          4.5950   42.0880   11.8490 C.3       1 SUB1        0.051
     52 NE          3.9770   43.3310   12.3570 N.pl3     1 SUB1       -0.170
     53 CZ          3.8790   44.4520   11.6730 C.cat     1 SUB1        0.387
     54 NH1         4.4330   44.5030   10.4680 N.pl3     1 SUB1       -0.183
     55 NH2         3.2610   45.5390   12.1820 N.pl3     1 SUB1       -0.183
     56 N           1.4670   39.2000   13.9330 N.am      1 SUB1       -0.268
     57 CA          0.0940   39.7610   13.9970 C.3       1 SUB1        0.084
     58 C           0.1460   41.3150   13.9800 C.2       1 SUB1        0.053
     59 O          -0.9730   41.8680   13.7430 O.co2     1 SUB1       -0.564
     60 CB         -0.7210   39.1720   15.1440 C.3       1 SUB1       -0.007
     61 CG         -2.2330   39.2710   14.9660 C.3       1 SUB1       -0.009
     62 CD         -3.0460   38.0070   15.1360 C.2       1 SUB1        0.028
     63 OE1        -4.2750   38.0740   15.4150 O.co2     1 SUB1       -0.567
     64 OE2        -2.4810   36.8970   14.9770 O.co2     1 SUB1       -0.567
     65 O1          1.2042   41.9680   14.1833 O.co2     1 SUB1       -0.564
     66 H21         4.1491   24.7485   20.1355 H         1 SUB1        0.110
     67 H51         2.0764   24.5255   18.9850 H         1 SUB1        0.035
     68 H52         1.2303   25.6591   20.0920 H         1 SUB1        0.035
     69 H61         1.8664   22.7495   20.4267 H         1 SUB1        0.032
     70 H62         0.4241   23.6850   20.9475 H         1 SUB1        0.032
     71 H71         2.5650   22.9552   22.5930 H         1 SUB1        0.081
     72 H72         1.3910   24.2713   22.9339 H         1 SUB1        0.081
     73 H81         4.6129   26.5138   18.7231 H         1 SUB1        0.189
     74 H91         4.0621   29.2737   19.7048 H         1 SUB1        0.083
     75 H121        6.0555   29.9603   18.4254 H         1 SUB1        0.064
     76 H131        5.6395   28.4537   16.6572 H         1 SUB1        0.210
     77 H141        7.6793   27.8913   19.1794 H         1 SUB1        0.026
     78 H142        6.2415   27.5434   20.1984 H         1 SUB1        0.026
     79 H143        7.0708   29.1315   20.3275 H         1 SUB1        0.026
     80 H151        3.4698   30.8957   18.1446 H         1 SUB1        0.188
     81 H161        2.5776   29.9665   15.4510 H         1 SUB1        0.080
     82 H191        0.5638   31.4264   15.5291 H         1 SUB1        0.035
     83 H192        0.8839   31.7483   17.2670 H         1 SUB1        0.035
     84 H201        0.7313   29.2207   17.6555 H         1 SUB1        0.049
     85 H202        0.1532   29.0699   15.9615 H         1 SUB1        0.049
     86 H451        4.2819   37.0166   11.3484 H         1 SUB1        0.189
     87 H461        3.8611   38.4183   13.8486 H         1 SUB1        0.080
     88 H491        3.9102   39.4900   10.9602 H         1 SUB1        0.031
     89 H492        5.3288   39.3211   12.0490 H         1 SUB1        0.031
     90 H501        4.3393   40.9252   13.6259 H         1 SUB1        0.028
     91 H502        2.8742   41.0601   12.5955 H         1 SUB1        0.028
     92 H511        4.4077   41.9919   10.7693 H         1 SUB1        0.050
     93 H512        5.6794   42.1077   12.0327 H         1 SUB1        0.050
     94 H521        3.5960   43.3195   13.3139 H         1 SUB1        0.198
     95 H541        4.9233   43.6792   10.0913 H         1 SUB1        0.194
     96 H542        4.3726   45.3663    9.9095 H         1 SUB1        0.194
     97 H551        2.8522   45.5038   13.1267 H         1 SUB1        0.194
     98 H552        3.1983   46.4035   11.6256 H         1 SUB1        0.194
     99 H561        2.0257   39.1940   14.7624 H         1 SUB1        0.190
    100 H571       -0.4181   39.4563   13.0724 H         1 SUB1        0.078
    101 H601       -0.4488   39.7047   16.0671 H         1 SUB1        0.036
    102 H602       -0.4561   38.1089   15.2425 H         1 SUB1        0.036
    103 H611       -2.4200   39.6474   13.9495 H         1 SUB1        0.049
    104 H612       -2.6031   40.0008   15.7011 H         1 SUB1        0.049
    105 H11         3.0007   25.7209   22.5830 H         1 SUB1        0.204
    106 H12         4.0904   24.5121   22.3359 H         1 SUB1        0.204
    107 H241        4.9217   31.0250   15.2539 H         1 SUB1        0.186
    108 H251        4.8992   33.9563   15.4604 H         1 SUB1        0.063
    109 H261        5.7475   32.6305   12.8338 H         1 SUB1        0.084
    110 H262        5.6847   34.3862   13.2085 H         1 SUB1        0.084
    111 H271        7.3323   33.8308   14.9612 H         1 SUB1        0.045
    112 H272        7.1907   32.0622   14.6804 H         1 SUB1        0.045
    113 H291        8.8195   31.3506   16.1851 H         1 SUB1        0.056
    114 H301        5.7133   33.8829   17.6310 H         1 SUB1        0.056
    115 H311        9.4942   30.7985   18.5212 H         1 SUB1        0.060
    116 H321        6.3961   33.3817   19.9468 H         1 SUB1        0.060
    117 H331        8.4012   32.0310   20.4011 H         1 SUB1        0.056
    118 H341        3.1598   33.5084   13.6600 H         1 SUB1        0.204
    119 H342        3.6045   32.6309   12.3402 H         1 SUB1        0.204
    120 H351        4.3088   34.7637   11.2764 H         1 SUB1        0.112
    121 H381        2.3385   33.5701   10.4906 H         1 SUB1        0.051
    122 H382        1.9717   35.3256   10.5934 H         1 SUB1        0.051
    123 H401        1.2772   31.9957   12.0497 H         1 SUB1        0.056
    124 H411        0.2420   36.1073   12.3079 H         1 SUB1        0.056
    125 H421       -0.7286   31.4122   13.3865 H         1 SUB1        0.060
    126 H431       -1.8986   35.5215   13.4198 H         1 SUB1        0.060
    127 H441       -2.2259   33.1828   14.1648 H         1 SUB1        0.056
@<TRIPOS>BOND
     1    2    1 1  
     2    2    5 1  
     3    3    2 1  
     4    3    4 2  
     5    5    6 1  
     6    6    7 1  
     7    1    7 1  
     8   10    9 1  
     9    9   12 1  
    10    9    8 1  
    11   12   13 1  
    12   12   14 1  
    13   10   11 2  
    14   17   16 1  
    15   16   19 1  
    16   16   15 1  
    17   19   20 1  
    18   20   21 1  
    19   21   22 2  
    20   21   23 2  
    21   17   18 2  
    22   25   24 1  
    23   25   27 1  
    24   26   25 1  
    25   34   26 1  
    26   35   34 1  
    27   35   38 1  
    28   36   35 1  
    29   36   37 2  
    30   38   39 1  
    31   39   41 ar 
    32   39   40 ar 
    33   40   42 ar 
    34   42   44 ar 
    35   43   44 ar 
    36   41   43 ar 
    37   27   28 1  
    38   28   30 ar 
    39   28   29 ar 
    40   29   31 ar 
    41   31   33 ar 
    42   32   33 ar 
    43   30   32 ar 
    44   46   47 1  
    45   46   49 1  
    46   45   46 1  
    47   49   50 1  
    48   50   51 1  
    49   51   52 1  
    50   52   53 1  
    51   53   54 1  
    52   53   55 1  
    53   47   48 2  
    54   57   58 1  
    55   57   60 1  
    56   56   57 1  
    57   60   61 1  
    58   61   62 1  
    59   62   63 2  
    60   62   64 2  
    61   58   65 2  
    62   58   59 2  
    63    8    3 am 
    64   15   10 am 
    65   47   56 am 
    66   24   17 am 
    67   36   45 am 
    68    2   66 1  
    69    5   67 1  
    70    5   68 1  
    71    6   69 1  
    72    6   70 1  
    73    7   71 1  
    74    7   72 1  
    75    8   73 1  
    76    9   74 1  
    77   12   75 1  
    78   13   76 1  
    79   14   77 1  
    80   14   78 1  
    81   14   79 1  
    82   15   80 1  
    83   16   81 1  
    84   19   82 1  
    85   19   83 1  
    86   20   84 1  
    87   20   85 1  
    88   45   86 1  
    89   46   87 1  
    90   49   88 1  
    91   49   89 1  
    92   50   90 1  
    93   50   91 1  
    94   51   92 1  
    95   51   93 1  
    96   52   94 1  
    97   54   95 1  
    98   54   96 1  
    99   55   97 1  
   100   55   98 1  
   101   56   99 1  
   102   57  100 1  
   103   60  101 1  
   104   60  102 1  
   105   61  103 1  
   106   61  104 1  
   107    1  105 1  
   108    1  106 1  
   109   24  107 1  
   110   25  108 1  
   111   26  109 1  
   112   26  110 1  
   113   27  111 1  
   114   27  112 1  
   115   29  113 1  
   116   30  114 1  
   117   31  115 1  
   118   32  116 1  
   119   33  117 1  
   120   34  118 1  
   121   34  119 1  
   122   35  120 1  
   123   38  121 1  
   124   38  122 1  
   125   40  123 1  
   126   41  124 1  
   127   42  125 1  
   128   43  126 1  
   129   44  127 1  
@<TRIPOS>SUBSTRUCTURE
     1 SUB1        1 GROUP

