1ofz_ligand
  -I-interpret- 

 23 23  0  0  0  0  0  0  0  0999 V2000
   26.1910   39.5350   36.7490 C   0  0  0  0  0
   26.7860   38.6170   37.8200 C   0  0  0  0  0
   25.7490   37.6980   38.2290 O   0  0  0  0  0
   27.9850   37.8500   37.2840 C   0  0  0  0  0
   28.5020   36.9650   38.2670 O   0  0  0  0  0
   29.0330   38.8200   36.7580 C   0  0  0  0  0
   29.6500   39.5520   37.7810 O   0  0  0  0  0
   28.3190   39.7260   35.7560 C   0  0  0  0  0
   29.3000   40.7080   35.1150 C   0  0  0  0  0
   27.2980   40.4370   36.4820 O   0  0  0  0  0
   25.2380   40.4350   37.2690 O   0  0  0  0  0
   25.8197   38.9793   35.8753 H   0  0  0  0  0
   27.1060   39.2205   38.6822 H   0  0  0  0  0
   26.0903   37.1135   38.8956 H   0  0  0  0  0
   27.6439   37.2375   36.4363 H   0  0  0  0  0
   27.8286   36.3435   38.5175 H   0  0  0  0  0
   29.8143   38.2506   36.2332 H   0  0  0  0  0
   28.9939   40.0554   38.2487 H   0  0  0  0  0
   27.8570   39.1144   34.9670 H   0  0  0  0  0
   28.7632   41.3478   34.3991 H   0  0  0  0  0
   30.0872   40.1487   34.5882 H   0  0  0  0  0
   29.7554   41.3341   35.8964 H   0  0  0  0  0
   25.5883   40.8500   38.0485 H   0  0  0  0  0
  1  2  1  0  0  0
  1 10  1  0  0  0
  1 11  1  0  0  0
  2  3  1  0  0  0
  2  4  1  0  0  0
  4  5  1  0  0  0
  4  6  1  0  0  0
  6  7  1  0  0  0
  6  8  1  0  0  0
  8  9  1  0  0  0
  8 10  1  0  0  0
  1 12  1  0  0  0
  2 13  1  0  0  0
  3 14  1  0  0  0
  4 15  1  0  0  0
  5 16  1  0  0  0
  6 17  1  0  0  0
  7 18  1  0  0  0
  8 19  1  0  0  0
  9 20  1  0  0  0
  9 21  1  0  0  0
  9 22  1  0  0  0
 11 23  1  0  0  0
M  END
$$$$
