### 
### Created by X-TOOL on Mon Oct 24 22:00:39 2005
### 

@<TRIPOS>MOLECULE
1ofz_ligand
   23    23     1     0     0
SMALL
GAST_HUCK


@<TRIPOS>ATOM
      1 C1         26.1910   39.5350   36.7490 C.3       1 SUB1        0.185
      2 C2         26.7860   38.6170   37.8200 C.3       1 SUB1        0.134
      3 O2         25.7490   37.6980   38.2290 O.3       1 SUB1       -0.384
      4 C3         27.9850   37.8500   37.2840 C.3       1 SUB1        0.114
      5 O3         28.5020   36.9650   38.2670 O.3       1 SUB1       -0.386
      6 C4         29.0330   38.8200   36.7580 C.3       1 SUB1        0.109
      7 O4         29.6500   39.5520   37.7810 O.3       1 SUB1       -0.387
      8 C5         28.3190   39.7260   35.7560 C.3       1 SUB1        0.087
      9 C6         29.3000   40.7080   35.1150 C.3       1 SUB1       -0.036
     10 O5         27.2980   40.4370   36.4820 O.3       1 SUB1       -0.343
     11 O1         25.2380   40.4350   37.2690 O.3       1 SUB1       -0.365
     12 H11        25.8197   38.9793   35.8753 H         1 SUB1        0.094
     13 H21        27.1060   39.2205   38.6822 H         1 SUB1        0.067
     14 H31        26.0903   37.1135   38.8956 H         1 SUB1        0.210
     15 H41        27.6439   37.2375   36.4363 H         1 SUB1        0.065
     16 H51        27.8286   36.3435   38.5175 H         1 SUB1        0.210
     17 H61        29.8143   38.2506   36.2332 H         1 SUB1        0.065
     18 H71        28.9939   40.0554   38.2487 H         1 SUB1        0.210
     19 H81        27.8570   39.1144   34.9670 H         1 SUB1        0.062
     20 H91        28.7632   41.3478   34.3991 H         1 SUB1        0.025
     21 H92        30.0872   40.1487   34.5882 H         1 SUB1        0.025
     22 H93        29.7554   41.3341   35.8964 H         1 SUB1        0.025
     23 H111       25.5883   40.8500   38.0485 H         1 SUB1        0.213
@<TRIPOS>BOND
     1    1    2 1  
     2    1   10 1  
     3    1   11 1  
     4    2    3 1  
     5    2    4 1  
     6    4    5 1  
     7    4    6 1  
     8    6    7 1  
     9    6    8 1  
    10    8    9 1  
    11    8   10 1  
    12    1   12 1  
    13    2   13 1  
    14    3   14 1  
    15    4   15 1  
    16    5   16 1  
    17    6   17 1  
    18    7   18 1  
    19    8   19 1  
    20    9   20 1  
    21    9   21 1  
    22    9   22 1  
    23   11   23 1  
@<TRIPOS>SUBSTRUCTURE
     1 SUB1        1 GROUP

