1rdj_ligand
  -I-interpret- 

 23 23  0  0  0  0  0  0  0  0999 V2000
    3.8870   47.7670    0.6980 C   0  0  0  0  0
    4.3080   46.6830    1.6840 C   0  0  0  0  0
    3.0830   45.9350    2.1830 C   0  0  0  0  0
    2.3190   45.3520    0.9930 C   0  0  0  0  0
    1.9710   46.4800    0.0140 C   0  0  0  0  0
    1.2930   45.9900   -1.2520 C   0  0  0  0  0
    5.0130   48.4770    0.2650 O   0  0  0  0  0
    4.9740   47.2660    2.7790 O   0  0  0  0  0
    3.4910   44.8900    3.0510 O   0  0  0  0  0
    3.1300   44.3810    0.3430 O   0  0  0  0  0
    3.1750   47.1760   -0.3830 O   0  0  0  0  0
    3.2139   48.4696    1.2111 H   0  0  0  0  0
    4.9848   45.9777    1.1795 H   0  0  0  0  0
    2.4287   46.6293    2.7306 H   0  0  0  0  0
    1.3927   44.8766    1.3477 H   0  0  0  0  0
    1.2959   47.1819    0.5255 H   0  0  0  0  0
    1.0730   46.8471   -1.9054 H   0  0  0  0  0
    0.3552   45.4777   -0.9910 H   0  0  0  0  0
    1.9593   45.2900   -1.7774 H   0  0  0  0  0
    5.4567   48.8534    1.0160 H   0  0  0  0  0
    5.7452   47.7270    2.4703 H   0  0  0  0  0
    4.0587   44.2917    2.5795 H   0  0  0  0  0
    3.3431   43.6868    0.9555 H   0  0  0  0  0
  1 11  1  0  0  0
  1  7  1  0  0  0
  1  2  1  0  0  0
  2  8  1  0  0  0
  2  3  1  0  0  0
  3  9  1  0  0  0
  3  4  1  0  0  0
  4 10  1  0  0  0
  4  5  1  0  0  0
  5 11  1  0  0  0
  5  6  1  0  0  0
  1 12  1  0  0  0
  2 13  1  0  0  0
  3 14  1  0  0  0
  4 15  1  0  0  0
  5 16  1  0  0  0
  6 17  1  0  0  0
  6 18  1  0  0  0
  6 19  1  0  0  0
  7 20  1  0  0  0
  8 21  1  0  0  0
  9 22  1  0  0  0
 10 23  1  0  0  0
M  END
$$$$
