### 
### Created by X-TOOL on Mon Oct 24 22:39:46 2005
### 

@<TRIPOS>MOLECULE
1rdj_ligand
   23    23     1     0     0
SMALL
GAST_HUCK


@<TRIPOS>ATOM
      1 C1          3.8870   47.7670    0.6980 C.3       1 SUB1        0.185
      2 C2          4.3080   46.6830    1.6840 C.3       1 SUB1        0.134
      3 C3          3.0830   45.9350    2.1830 C.3       1 SUB1        0.114
      4 C4          2.3190   45.3520    0.9930 C.3       1 SUB1        0.109
      5 C5          1.9710   46.4800    0.0140 C.3       1 SUB1        0.087
      6 C6          1.2930   45.9900   -1.2520 C.3       1 SUB1       -0.036
      7 O1          5.0130   48.4770    0.2650 O.3       1 SUB1       -0.365
      8 O2          4.9740   47.2660    2.7790 O.3       1 SUB1       -0.384
      9 O3          3.4910   44.8900    3.0510 O.3       1 SUB1       -0.386
     10 O4          3.1300   44.3810    0.3430 O.3       1 SUB1       -0.387
     11 O5          3.1750   47.1760   -0.3830 O.3       1 SUB1       -0.343
     12 H11         3.2139   48.4696    1.2111 H         1 SUB1        0.094
     13 H21         4.9848   45.9777    1.1795 H         1 SUB1        0.067
     14 H31         2.4287   46.6293    2.7306 H         1 SUB1        0.065
     15 H41         1.3927   44.8766    1.3477 H         1 SUB1        0.065
     16 H51         1.2959   47.1819    0.5255 H         1 SUB1        0.062
     17 H61         1.0730   46.8471   -1.9054 H         1 SUB1        0.025
     18 H62         0.3552   45.4777   -0.9910 H         1 SUB1        0.025
     19 H63         1.9593   45.2900   -1.7774 H         1 SUB1        0.025
     20 H71         5.4567   48.8534    1.0160 H         1 SUB1        0.213
     21 H81         5.7452   47.7270    2.4703 H         1 SUB1        0.210
     22 H91         4.0587   44.2917    2.5795 H         1 SUB1        0.210
     23 H101        3.3431   43.6868    0.9555 H         1 SUB1        0.210
@<TRIPOS>BOND
     1    1   11 1  
     2    1    7 1  
     3    1    2 1  
     4    2    8 1  
     5    2    3 1  
     6    3    9 1  
     7    3    4 1  
     8    4   10 1  
     9    4    5 1  
    10    5   11 1  
    11    5    6 1  
    12    1   12 1  
    13    2   13 1  
    14    3   14 1  
    15    4   15 1  
    16    5   16 1  
    17    6   17 1  
    18    6   18 1  
    19    6   19 1  
    20    7   20 1  
    21    8   21 1  
    22    9   22 1  
    23   10   23 1  
@<TRIPOS>SUBSTRUCTURE
     1 SUB1        1 GROUP

