1b2h_ligand
  -I-interpret- 

 66 65  0  0  0  0  0  0  0  0999 V2000
    7.0350   16.7300   15.3030 N   0  3  0  0  0
    6.5930   18.0400   14.7270 C   0  0  0  0  0
    5.3860   18.5660   15.5180 C   0  0  0  0  0
    4.6400   17.7880   16.1040 O   0  0  0  0  0
    6.2050   17.9940   13.2500 C   0  0  0  0  0
    5.3550   16.7740   12.8610 C   0  0  0  0  0
    5.1560   16.7600   11.3380 C   0  0  0  0  0
    6.3760   16.1890   10.6240 C   0  0  0  0  0
    6.5550   14.7410   10.9400 N   0  3  0  0  0
    5.2970   19.8800   15.6070 N   0  0  0  0  0
    4.2090   20.4900   16.3680 C   0  0  0  0  0
    4.5770   21.9150   16.8250 C   0  0  0  0  0
    5.5710   21.9000   18.0100 C   0  0  0  0  0
    5.8240   23.2770   18.5850 C   0  0  0  0  0
    6.7200   23.2890   19.5940 N   0  3  0  0  0
    2.9030   20.5330   15.5910 C   0  0  0  0  0
    2.7960   20.8830   14.4250 O   0  0  0  0  0
    1.8260   20.2050   16.3180 N   0  0  0  0  0
    0.4910   20.2680   15.7410 C   0  0  0  0  0
   -0.4770   20.8350   16.7860 C   0  0  0  0  0
   -1.6470   20.4320   16.8290 O   0  0  0  0  0
    0.0100   18.8770   15.3080 C   0  0  0  0  0
   -1.0150   19.0060   14.1650 C   0  0  0  0  0
   -1.7120   17.6980   13.9050 C   0  0  0  0  0
   -2.6110   17.7110   12.6760 C   0  0  0  0  0
   -3.6990   18.7330   12.8060 N   0  3  0  0  0
   -0.1140   21.6420   17.6580 O   0  5  0  0  0
    6.4796   16.5202   16.1098 H   0  0  0  0  0
    7.4290   18.7238   14.8332 H   0  0  0  0  0
    7.1292   17.9522   12.6494 H   0  0  0  0  0
    5.6337   18.8782   13.0134 H   0  0  0  0  0
    4.3778   16.8092   13.3574 H   0  0  0  0  0
    5.8709   15.8282   13.1714 H   0  0  0  0  0
    4.9881   17.7646   10.9878 H   0  0  0  0  0
    4.2800   16.1173   11.0955 H   0  0  0  0  0
    7.2733   16.7155   10.9446 H   0  0  0  0  0
    6.2460   16.2813    9.5365 H   0  0  0  0  0
    6.6916   14.6030   11.9308 H   0  0  0  0  0
    7.3626   14.3621   10.4472 H   0  0  0  0  0
    5.7367   14.2055   10.6503 H   0  0  0  0  0
    1.9491   19.9090   17.2619 H   0  0  0  0  0
    0.5185   20.9252   14.8568 H   0  0  0  0  0
   -0.4525   18.3669   16.1583 H   0  0  0  0  0
    0.8785   18.2811   14.9551 H   0  0  0  0  0
   -0.4848   19.3173   13.2439 H   0  0  0  0  0
   -1.7561   19.7583   14.4337 H   0  0  0  0  0
   -2.3204   17.4492   14.7767 H   0  0  0  0  0
   -0.9389   16.9150   13.7606 H   0  0  0  0  0
   -3.0579   16.7123   12.5491 H   0  0  0  0  0
   -1.9946   17.9415   11.7843 H   0  0  0  0  0
   -4.2614   18.5113   13.6022 H   0  0  0  0  0
   -4.2614   18.7191   11.9694 H   0  0  0  0  0
   -3.2813   19.6421   12.9164 H   0  0  0  0  0
    8.0025   16.7853   15.5442 H   0  0  0  0  0
    6.9009   16.0010   14.6057 H   0  0  0  0  0
    5.9748   20.4585   15.1532 H   0  0  0  0  0
    4.0559   19.8693   17.2591 H   0  0  0  0  0
    3.6684   22.4323   17.1303 H   0  0  0  0  0
    5.0447   22.4471   15.9761 H   0  0  0  0  0
    6.5360   21.4801   17.6544 H   0  0  0  0  0
    5.1693   21.2536   18.7980 H   0  0  0  0  0
    4.8837   23.6952   18.9669 H   0  0  0  0  0
    6.2123   23.9450   17.7841 H   0  0  0  0  0
    6.9315   24.2536   20.0211 H   0  0  0  0  0
    7.6968   22.9564   19.3569 H   0  0  0  0  0
    6.4793   22.7275   20.4408 H   0  0  0  0  0
  3  2  1  0  0  0
  2  5  1  0  0  0
  2  1  1  0  0  0
  5  6  1  0  0  0
  6  7  1  0  0  0
  7  8  1  0  0  0
  8  9  1  0  0  0
  3  4  2  0  0  0
 10 11  1  0  0  0
 11 16  1  0  0  0
 11 12  1  0  0  0
 12 13  1  0  0  0
 13 14  1  0  0  0
 14 15  1  0  0  0
 16 17  2  0  0  0
 19 20  1  0  0  0
 19 22  1  0  0  0
 18 19  1  0  0  0
 22 23  1  0  0  0
 23 24  1  0  0  0
 24 25  1  0  0  0
 25 26  1  0  0  0
 20 27  1  0  0  0
 20 21  2  0  0  0
 16 18  1  0  0  0
 10  3  1  0  0  0
  1 28  1  0  0  0
  2 29  1  0  0  0
  5 30  1  0  0  0
  5 31  1  0  0  0
  6 32  1  0  0  0
  6 33  1  0  0  0
  7 34  1  0  0  0
  7 35  1  0  0  0
  8 36  1  0  0  0
  8 37  1  0  0  0
  9 38  1  0  0  0
  9 39  1  0  0  0
  9 40  1  0  0  0
 18 41  1  0  0  0
 19 42  1  0  0  0
 22 43  1  0  0  0
 22 44  1  0  0  0
 23 45  1  0  0  0
 23 46  1  0  0  0
 24 47  1  0  0  0
 24 48  1  0  0  0
 25 49  1  0  0  0
 25 50  1  0  0  0
 26 51  1  0  0  0
 26 52  1  0  0  0
 26 53  1  0  0  0
  1 54  1  0  0  0
  1 55  1  0  0  0
 10 56  1  0  0  0
 11 57  1  0  0  0
 12 58  1  0  0  0
 12 59  1  0  0  0
 13 60  1  0  0  0
 13 61  1  0  0  0
 14 62  1  0  0  0
 14 63  1  0  0  0
 15 64  1  0  0  0
 15 65  1  0  0  0
 15 66  1  0  0  0
M  END
$$$$
