### 
### Created by X-TOOL on Mon Oct 24 23:04:18 2005
### 

@<TRIPOS>MOLECULE
1b2h_ligand
   66    65     1     0     0
SMALL
GAST_HUCK


@<TRIPOS>ATOM
      1 N           7.0350   16.7300   15.3030 N.4       1 SUB1        0.238
      2 CA          6.5930   18.0400   14.7270 C.3       1 SUB1        0.065
      3 C           5.3860   18.5660   15.5180 C.2       1 SUB1        0.227
      4 O           4.6400   17.7880   16.1040 O.2       1 SUB1       -0.391
      5 CB          6.2050   17.9940   13.2500 C.3       1 SUB1        0.008
      6 CG          5.3550   16.7740   12.8610 C.3       1 SUB1       -0.041
      7 CD          5.1560   16.7600   11.3380 C.3       1 SUB1       -0.012
      8 CE          6.3760   16.1890   10.6240 C.3       1 SUB1       -0.035
      9 NZ          6.5550   14.7410   10.9400 N.4       1 SUB1        0.219
     10 N           5.2970   19.8800   15.6070 N.am      1 SUB1       -0.261
     11 CA          4.2090   20.4900   16.3680 C.3       1 SUB1        0.131
     12 CB          4.5770   21.9150   16.8250 C.3       1 SUB1       -0.008
     13 CG          5.5710   21.9000   18.0100 C.3       1 SUB1       -0.008
     14 C           5.8240   23.2770   18.5850 C.3       1 SUB1       -0.035
     15 N           6.7200   23.2890   19.5940 N.4       1 SUB1        0.219
     16 C           2.9030   20.5330   15.5910 C.2       1 SUB1        0.205
     17 O           2.7960   20.8830   14.4250 O.2       1 SUB1       -0.394
     18 N           1.8260   20.2050   16.3180 N.am      1 SUB1       -0.268
     19 CA          0.4910   20.2680   15.7410 C.3       1 SUB1        0.081
     20 C          -0.4770   20.8350   16.7860 C.2       1 SUB1        0.053
     21 O          -1.6470   20.4320   16.8290 O.co2     1 SUB1       -0.564
     22 CB          0.0100   18.8770   15.3080 C.3       1 SUB1       -0.018
     23 CG         -1.0150   19.0060   14.1650 C.3       1 SUB1       -0.043
     24 CD         -1.7120   17.6980   13.9050 C.3       1 SUB1       -0.012
     25 CE         -2.6110   17.7110   12.6760 C.3       1 SUB1       -0.035
     26 NZ         -3.6990   18.7330   12.8060 N.4       1 SUB1        0.219
     27 O          -0.1140   21.6420   17.6580 O.co2     1 SUB1       -0.564
     28 H11         6.4796   16.5202   16.1098 H         1 SUB1        0.201
     29 H21         7.4290   18.7238   14.8332 H         1 SUB1        0.110
     30 H51         7.1292   17.9522   12.6494 H         1 SUB1        0.035
     31 H52         5.6337   18.8782   13.0134 H         1 SUB1        0.035
     32 H61         4.3778   16.8092   13.3574 H         1 SUB1        0.027
     33 H62         5.8709   15.8282   13.1714 H         1 SUB1        0.027
     34 H71         4.9881   17.7646   10.9878 H         1 SUB1        0.032
     35 H72         4.2800   16.1173   11.0955 H         1 SUB1        0.032
     36 H81         7.2733   16.7155   10.9446 H         1 SUB1        0.081
     37 H82         6.2460   16.2813    9.5365 H         1 SUB1        0.081
     38 H91         6.6916   14.6030   11.9308 H         1 SUB1        0.199
     39 H92         7.3626   14.3621   10.4472 H         1 SUB1        0.199
     40 H93         5.7367   14.2055   10.6503 H         1 SUB1        0.199
     41 H181        1.9491   19.9090   17.2619 H         1 SUB1        0.190
     42 H191        0.5185   20.9252   14.8568 H         1 SUB1        0.078
     43 H221       -0.4525   18.3669   16.1583 H         1 SUB1        0.032
     44 H222        0.8785   18.2811   14.9551 H         1 SUB1        0.032
     45 H231       -0.4848   19.3173   13.2439 H         1 SUB1        0.027
     46 H232       -1.7561   19.7583   14.4337 H         1 SUB1        0.027
     47 H241       -2.3204   17.4492   14.7767 H         1 SUB1        0.032
     48 H242       -0.9389   16.9150   13.7606 H         1 SUB1        0.032
     49 H251       -3.0579   16.7123   12.5491 H         1 SUB1        0.081
     50 H252       -1.9946   17.9415   11.7843 H         1 SUB1        0.081
     51 H261       -4.2614   18.5113   13.6022 H         1 SUB1        0.199
     52 H262       -4.2614   18.7191   11.9694 H         1 SUB1        0.199
     53 H263       -3.2813   19.6421   12.9164 H         1 SUB1        0.199
     54 H12         8.0025   16.7853   15.5442 H         1 SUB1        0.201
     55 H13         6.9009   16.0010   14.6057 H         1 SUB1        0.201
     56 H101        5.9748   20.4585   15.1532 H         1 SUB1        0.188
     57 H111        4.0559   19.8693   17.2591 H         1 SUB1        0.080
     58 H121        3.6684   22.4323   17.1303 H         1 SUB1        0.031
     59 H122        5.0447   22.4471   15.9761 H         1 SUB1        0.031
     60 H131        6.5360   21.4801   17.6544 H         1 SUB1        0.032
     61 H132        5.1693   21.2536   18.7980 H         1 SUB1        0.032
     62 H141        4.8837   23.6952   18.9669 H         1 SUB1        0.081
     63 H142        6.2123   23.9450   17.7841 H         1 SUB1        0.081
     64 H151        6.9315   24.2536   20.0211 H         1 SUB1        0.199
     65 H152        7.6968   22.9564   19.3569 H         1 SUB1        0.199
     66 H153        6.4793   22.7275   20.4408 H         1 SUB1        0.199
@<TRIPOS>BOND
     1    3    2 1  
     2    2    5 1  
     3    2    1 1  
     4    5    6 1  
     5    6    7 1  
     6    7    8 1  
     7    8    9 1  
     8    3    4 2  
     9   10   11 1  
    10   11   16 1  
    11   11   12 1  
    12   12   13 1  
    13   13   14 1  
    14   14   15 1  
    15   16   17 2  
    16   19   20 1  
    17   19   22 1  
    18   18   19 1  
    19   22   23 1  
    20   23   24 1  
    21   24   25 1  
    22   25   26 1  
    23   20   27 2  
    24   20   21 2  
    25   16   18 am 
    26   10    3 am 
    27    1   28 1  
    28    2   29 1  
    29    5   30 1  
    30    5   31 1  
    31    6   32 1  
    32    6   33 1  
    33    7   34 1  
    34    7   35 1  
    35    8   36 1  
    36    8   37 1  
    37    9   38 1  
    38    9   39 1  
    39    9   40 1  
    40   18   41 1  
    41   19   42 1  
    42   22   43 1  
    43   22   44 1  
    44   23   45 1  
    45   23   46 1  
    46   24   47 1  
    47   24   48 1  
    48   25   49 1  
    49   25   50 1  
    50   26   51 1  
    51   26   52 1  
    52   26   53 1  
    53    1   54 1  
    54    1   55 1  
    55   10   56 1  
    56   11   57 1  
    57   12   58 1  
    58   12   59 1  
    59   13   60 1  
    60   13   61 1  
    61   14   62 1  
    62   14   63 1  
    63   15   64 1  
    64   15   65 1  
    65   15   66 1  
@<TRIPOS>SUBSTRUCTURE
     1 SUB1        1 GROUP

