### 
### Created by X-TOOL on Sun Jun  3 12:16:05 2007
### 

@<TRIPOS>MOLECULE
2f34_ligand
   38    39     1     0     0
SMALL
GAST_HUCK


@<TRIPOS>ATOM
      1 OXT       -10.4830   -4.1740   13.7510 O.2       1 SUB1       -0.256
      2 C          -9.6150   -4.7760   14.4690 C.2       1 SUB1        0.395
      3 O          -9.9600   -5.7190   15.2140 O.2       1 SUB1       -0.256
      4 CA         -8.1730   -4.3780   14.4320 C.3       1 SUB1        0.116
      5 N          -7.9910   -3.3160   13.4520 N.4       1 SUB1        0.238
      6 CB         -7.7160   -3.9870   15.8700 C.3       1 SUB1        0.121
      7 N4         -6.3830   -3.4150   15.7340 N.am      1 SUB1       -0.193
      8 C5         -5.3100   -4.3350   15.5780 C.2       1 SUB1        0.331
      9 O8         -5.5700   -5.5430   15.6080 O.2       1 SUB1       -0.384
     10 N6         -4.0160   -3.8530   15.4080 N.am      1 SUB1       -0.151
     11 C1         -3.7600   -2.4900   15.4050 C.2       1 SUB1        0.199
     12 O7         -2.6030   -2.1060   15.2260 O.2       1 SUB1       -0.407
     13 C2         -4.8910   -1.5420   15.5630 C.2       1 SUB1        0.023
     14 C6         -4.6330   -0.0450   15.5690 C.3       1 SUB1       -0.044
     15 C3         -6.1510   -2.0930   15.7330 C.2       1 SUB1        0.050
     16 C17        -2.8740   -4.7230   15.1850 C.3       1 SUB1        0.126
     17 C18        -2.5480   -5.4600   16.4270 C.2       1 SUB1        0.111
     18 C23        -2.8360   -5.1430   17.7660 C.2       1 SUB1        0.047
     19 C22        -2.3610   -6.0580   18.7250 C.2       1 SUB1        0.098
     20 S20        -1.5220   -7.3310   17.8860 S.3       1 SUB1        0.108
     21 C19        -1.7750   -6.7000   16.3190 C.2       1 SUB1        0.194
     22 C10        -1.2810   -7.3790   15.1120 C.2       1 SUB1        0.151
     23 O2         -1.1130   -6.7180   14.0510 O.2       1 SUB1       -0.537
     24 O1         -1.0490   -8.6010   15.2660 O.2       1 SUB1       -0.537
     25 H          -7.5401   -5.2064   14.1136 H         1 SUB1        0.111
     26 H          -8.3093   -3.6397   12.5386 H         1 SUB1        0.201
     27 H          -8.5338   -2.4993   13.7327 H         1 SUB1        0.201
     28 H          -7.0030   -3.0679   13.4008 H         1 SUB1        0.201
     29 H          -7.7044   -4.8562   16.5276 H         1 SUB1        0.068
     30 H          -8.4053   -3.2723   16.3197 H         1 SUB1        0.068
     31 H          -5.2026    0.4238   14.7666 H         1 SUB1        0.030
     32 H          -4.9423    0.3719   16.5274 H         1 SUB1        0.030
     33 H          -3.5695    0.1397   15.4173 H         1 SUB1        0.030
     34 H          -6.9961   -1.4190   15.8729 H         1 SUB1        0.101
     35 H          -2.0155   -4.1192   14.8907 H         1 SUB1        0.087
     36 H          -3.1157   -5.4369   14.3976 H         1 SUB1        0.087
     37 H          -3.3910   -4.2470   18.0438 H         1 SUB1        0.083
     38 H          -2.4953   -5.9822   19.8040 H         1 SUB1        0.160
@<TRIPOS>BOND
     1    1    2 2  
     2    2    3 2  
     3    2    4 1  
     4    4    5 1  
     5    4    6 1  
     6    6    7 1  
     7    7    8 am 
     8    7   15 1  
     9    8    9 2  
    10    8   10 am 
    11   10   11 am 
    12   10   16 1  
    13   11   12 2  
    14   11   13 1  
    15   13   14 1  
    16   13   15 2  
    17   16   17 1  
    18   17   18 1  
    19   17   21 2  
    20   18   19 2  
    21   19   20 1  
    22   20   21 1  
    23   21   22 1  
    24   22   23 2  
    25   22   24 2  
    26    4   25 1  
    27    5   26 1  
    28    5   27 1  
    29    5   28 1  
    30    6   29 1  
    31    6   30 1  
    32   14   31 1  
    33   14   32 1  
    34   14   33 1  
    35   15   34 1  
    36   16   35 1  
    37   16   36 1  
    38   18   37 1  
    39   19   38 1  
@<TRIPOS>SUBSTRUCTURE
     1 SUB1        1 GROUP

