2f34_ligand
  -I-interpret- 

 38 39  0  0  0  0  0  0  0  0999 V2000
  -10.4830   -4.1740   13.7510 O   0  5  0  0  0
   -9.6150   -4.7760   14.4690 C   0  0  0  0  0
   -9.9600   -5.7190   15.2140 O   0  0  0  0  0
   -8.1730   -4.3780   14.4320 C   0  0  0  0  0
   -7.9910   -3.3160   13.4520 N   0  3  0  0  0
   -7.7160   -3.9870   15.8700 C   0  0  0  0  0
   -6.3830   -3.4150   15.7340 N   0  0  0  0  0
   -5.3100   -4.3350   15.5780 C   0  0  0  0  0
   -5.5700   -5.5430   15.6080 O   0  0  0  0  0
   -4.0160   -3.8530   15.4080 N   0  0  0  0  0
   -3.7600   -2.4900   15.4050 C   0  0  0  0  0
   -2.6030   -2.1060   15.2260 O   0  0  0  0  0
   -4.8910   -1.5420   15.5630 C   0  0  0  0  0
   -4.6330   -0.0450   15.5690 C   0  0  0  0  0
   -6.1510   -2.0930   15.7330 C   0  0  0  0  0
   -2.8740   -4.7230   15.1850 C   0  0  0  0  0
   -2.5480   -5.4600   16.4270 C   0  0  0  0  0
   -2.8360   -5.1430   17.7660 C   0  0  0  0  0
   -2.3610   -6.0580   18.7250 C   0  0  0  0  0
   -1.5220   -7.3310   17.8860 S   0  0  0  0  0
   -1.7750   -6.7000   16.3190 C   0  0  0  0  0
   -1.2810   -7.3790   15.1120 C   0  0  0  0  0
   -1.1130   -6.7180   14.0510 O   0  5  0  0  0
   -1.0490   -8.6010   15.2660 O   0  0  0  0  0
   -7.5401   -5.2064   14.1136 H   0  0  0  0  0
   -8.3093   -3.6397   12.5386 H   0  0  0  0  0
   -8.5338   -2.4993   13.7327 H   0  0  0  0  0
   -7.0030   -3.0679   13.4008 H   0  0  0  0  0
   -7.7044   -4.8562   16.5276 H   0  0  0  0  0
   -8.4053   -3.2723   16.3197 H   0  0  0  0  0
   -5.2026    0.4238   14.7666 H   0  0  0  0  0
   -4.9423    0.3719   16.5274 H   0  0  0  0  0
   -3.5695    0.1397   15.4173 H   0  0  0  0  0
   -6.9961   -1.4190   15.8729 H   0  0  0  0  0
   -2.0155   -4.1192   14.8907 H   0  0  0  0  0
   -3.1157   -5.4369   14.3976 H   0  0  0  0  0
   -3.3910   -4.2470   18.0438 H   0  0  0  0  0
   -2.4953   -5.9822   19.8040 H   0  0  0  0  0
  1  2  1  0  0  0
  2  3  2  0  0  0
  2  4  1  0  0  0
  4  5  1  0  0  0
  4  6  1  0  0  0
  6  7  1  0  0  0
  7  8  1  0  0  0
  7 15  1  0  0  0
  8  9  2  0  0  0
  8 10  1  0  0  0
 10 11  1  0  0  0
 10 16  1  0  0  0
 11 12  2  0  0  0
 11 13  1  0  0  0
 13 14  1  0  0  0
 13 15  2  0  0  0
 16 17  1  0  0  0
 17 18  1  0  0  0
 17 21  2  0  0  0
 18 19  2  0  0  0
 19 20  1  0  0  0
 20 21  1  0  0  0
 21 22  1  0  0  0
 22 23  1  0  0  0
 22 24  2  0  0  0
  4 25  1  0  0  0
  5 26  1  0  0  0
  5 27  1  0  0  0
  5 28  1  0  0  0
  6 29  1  0  0  0
  6 30  1  0  0  0
 14 31  1  0  0  0
 14 32  1  0  0  0
 14 33  1  0  0  0
 15 34  1  0  0  0
 16 35  1  0  0  0
 16 36  1  0  0  0
 18 37  1  0  0  0
 19 38  1  0  0  0
M  END
$$$$
